<?xml version="1.0" encoding="UTF-8"?>

<!-- generated on 11/07/20 15:43:57 by Eclipse SUMO netconvert Version v1_7_0+0879-aea7511197
<configuration xmlns:xsi="http://www.w3.org/2001/XMLSchema-instance" xsi:noNamespaceSchemaLocation="http://sumo.dlr.de/xsd/netconvertConfiguration.xsd">

    <input>
        <sumo-net-file value="osm.net.xml"/>
    </input>

    <output>
        <plain-output-prefix value="F:\polyhack\trafficmap\aarhus"/>
        <output.street-names value="true"/>
    </output>

    <processing>
        <geometry.min-radius.fix.railways value="false"/>
        <geometry.max-grade.fix value="false"/>
        <offset.disable-normalization value="true"/>
        <lefthand value="false"/>
    </processing>

    <junctions>
        <no-turnarounds value="true"/>
        <junctions.corner-detail value="5"/>
        <junctions.limit-turn-speed value="5.5"/>
        <rectangular-lane-cut value="false"/>
    </junctions>

    <pedestrian>
        <walkingareas value="false"/>
    </pedestrian>

    <report>
        <aggregate-warnings value="5"/>
    </report>

</configuration>
-->

<connections version="1.6" xmlns:xsi="http://www.w3.org/2001/XMLSchema-instance" xsi:noNamespaceSchemaLocation="http://sumo.dlr.de/xsd/connections_file.xsd">
    <connection from="-100281664#2" to="41217403#5" fromLane="0" toLane="0"/>
    <connection from="-100281664#2" to="20038254#0" fromLane="0" toLane="0"/>
    <connection from="-100281664#2" to="-41217403#4" fromLane="0" toLane="0"/>
    <connection from="-100281664#2" to="100281664#0" fromLane="0" toLane="0"/>

    <connection from="-102695800#4" to="129787445#0" fromLane="0" toLane="0"/>
    <connection from="-102695800#4" to="-108035413#9" fromLane="0" toLane="0"/>
    <connection from="-102695800#4" to="102695800#0" fromLane="0" toLane="0"/>

    <connection from="-104291156#1" to="627088906#4" fromLane="0" toLane="0"/>
    <connection from="-104291156#1" to="11837080#3" fromLane="0" toLane="1"/>

    <connection from="-104291157#1" to="11837080#4" fromLane="0" toLane="0"/>
    <connection from="-104291157#1" to="627088906#2" fromLane="0" toLane="1"/>

    <connection from="-104291157#4" to="-104291157#1" fromLane="0" toLane="0"/>
    <connection from="-104291157#4" to="146706372#0" fromLane="0" toLane="0"/>
    <connection from="-104291157#4" to="104291157#2" fromLane="0" toLane="0"/>

    <connection from="-105307583#3" to="-79825369#27" fromLane="0" toLane="0"/>
    <connection from="-105307583#3" to="79825369#28" fromLane="0" toLane="0"/>
    <connection from="-105307583#3" to="105307583#0" fromLane="0" toLane="0"/>

    <connection from="-106751490#1" to="24502384#1" fromLane="0" toLane="0"/>
    <connection from="-106751490#1" to="-144928132#6" fromLane="0" toLane="0"/>
    <connection from="-106751490#1" to="106751490#0" fromLane="0" toLane="0"/>

    <connection from="-107079107#2" to="-87887331#1" fromLane="0" toLane="0"/>
    <connection from="-107079107#2" to="107079109#0" fromLane="0" toLane="0"/>
    <connection from="-107079107#2" to="87887331#2" fromLane="0" toLane="0"/>
    <connection from="-107079107#2" to="107079107#0" fromLane="0" toLane="0"/>

    <connection from="-107079108#1" to="23338808#10" fromLane="0" toLane="0"/>
    <connection from="-107079108#1" to="-23338808#9" fromLane="0" toLane="0"/>
    <connection from="-107079108#1" to="107079108#0" fromLane="0" toLane="0"/>

    <connection from="-107079109#1" to="87887331#2" fromLane="0" toLane="0"/>
    <connection from="-107079109#1" to="107079107#0" fromLane="0" toLane="0"/>
    <connection from="-107079109#1" to="-87887331#1" fromLane="0" toLane="0"/>
    <connection from="-107079109#1" to="107079109#0" fromLane="0" toLane="0"/>

    <connection from="-107079109#2" to="-23338810#2" fromLane="0" toLane="0"/>
    <connection from="-107079109#2" to="-107079109#1" fromLane="0" toLane="0"/>
    <connection from="-107079109#2" to="23338810#3" fromLane="0" toLane="0"/>
    <connection from="-107079109#2" to="107079109#2" fromLane="0" toLane="0"/>

    <connection from="-107079111" to="110794887#1" fromLane="0" toLane="0"/>
    <connection from="-107079111" to="-110794887#0" fromLane="0" toLane="0"/>
    <connection from="-107079111" to="107079111" fromLane="0" toLane="0"/>

    <connection from="-107079115" to="708180205#1" fromLane="0" toLane="0"/>
    <connection from="-107079115" to="376705529" fromLane="0" toLane="0"/>
    <connection from="-107079115" to="-708180205#0" fromLane="0" toLane="0"/>

    <connection from="-107079116#0" to="-110794885#0" fromLane="0" toLane="0"/>
    <connection from="-107079116#0" to="110794885#1" fromLane="0" toLane="0"/>
    <connection from="-107079116#0" to="107079116#0" fromLane="0" toLane="0"/>

    <connection from="-107079116#1" to="-107079117#1" fromLane="0" toLane="0"/>
    <connection from="-107079116#1" to="-107079116#0" fromLane="0" toLane="0"/>
    <connection from="-107079116#1" to="107079116#1" fromLane="0" toLane="0"/>

    <connection from="-107079117#1" to="23338808#13" fromLane="0" toLane="0"/>
    <connection from="-107079117#1" to="-23338808#12" fromLane="0" toLane="0"/>
    <connection from="-107079117#1" to="107079117#0" fromLane="0" toLane="0"/>

    <connection from="-107079119" to="-23338808#10" fromLane="0" toLane="0"/>
    <connection from="-107079119" to="23338808#11" fromLane="0" toLane="0"/>
    <connection from="-107079119" to="107079119" fromLane="0" toLane="0"/>

    <connection from="-107614273" to="-11280931#2" fromLane="0" toLane="0"/>
    <connection from="-107614273" to="107617177" fromLane="0" toLane="0"/>
    <connection from="-107614273" to="187957278" fromLane="0" toLane="0"/>

    <connection from="-107683570#1" to="-498902079#1" fromLane="0" toLane="0"/>
    <connection from="-107683570#1" to="107683568#0" fromLane="0" toLane="0"/>
    <connection from="-107683570#1" to="107683570#0" fromLane="1" toLane="0"/>

    <connection from="-107701562#2" to="13512041#11" fromLane="0" toLane="0"/>
    <connection from="-107701562#2" to="-13512041#10" fromLane="0" toLane="0"/>
    <connection from="-107701562#2" to="107701562#0" fromLane="0" toLane="0"/>

    <connection from="-107807114#0" to="-144819234" fromLane="0" toLane="0"/>

    <connection from="-107807114#1" to="109232842#8" fromLane="0" toLane="0"/>
    <connection from="-107807114#1" to="-107807114#0" fromLane="0" toLane="0"/>
    <connection from="-107807114#1" to="-109232842#7" fromLane="0" toLane="0"/>
    <connection from="-107807114#1" to="107807114#1" fromLane="0" toLane="0"/>

    <connection from="-107904933" to="-142188287" fromLane="0" toLane="0"/>

    <connection from="-108035413#2" to="87553088#0" fromLane="0" toLane="0"/>

    <connection from="-108035413#7" to="-108035413#2" fromLane="0" toLane="0"/>
    <connection from="-108035413#7" to="32661268" fromLane="0" toLane="0"/>
    <connection from="-108035413#7" to="108035413#3" fromLane="0" toLane="0"/>

    <connection from="-108035413#9" to="129787438#0" fromLane="0" toLane="0"/>
    <connection from="-108035413#9" to="-108035413#7" fromLane="0" toLane="0"/>
    <connection from="-108035413#9" to="108035413#8" fromLane="0" toLane="0"/>

    <connection from="-109085416#3" to="109085416#0" fromLane="0" toLane="0"/>

    <connection from="-109232840" to="-109232841#1" fromLane="0" toLane="0"/>

    <connection from="-109232841#0" to="-159712733#11" fromLane="0" toLane="0"/>

    <connection from="-109232841#1" to="79342308#1" fromLane="0" toLane="0"/>
    <connection from="-109232841#1" to="-109232841#0" fromLane="0" toLane="0"/>
    <connection from="-109232841#1" to="-79342308#0" fromLane="0" toLane="0"/>
    <connection from="-109232841#1" to="109232841#1" fromLane="0" toLane="0"/>

    <connection from="-109232842#1" to="-32661655#5" fromLane="0" toLane="0"/>

    <connection from="-109232842#4" to="-109235737#6" fromLane="0" toLane="0"/>
    <connection from="-109232842#4" to="-109232842#1" fromLane="0" toLane="0"/>
    <connection from="-109232842#4" to="109235737#7" fromLane="0" toLane="0"/>
    <connection from="-109232842#4" to="109232842#2" fromLane="0" toLane="0"/>

    <connection from="-109232842#5" to="-109232842#4" fromLane="0" toLane="0"/>
    <connection from="-109232842#5" to="87608816" fromLane="0" toLane="0"/>
    <connection from="-109232842#5" to="109232842#5" fromLane="0" toLane="0"/>

    <connection from="-109232842#6" to="-109232842#5" fromLane="0" toLane="0"/>
    <connection from="-109232842#6" to="109235732#1" fromLane="0" toLane="0"/>
    <connection from="-109232842#6" to="109232842#6" fromLane="0" toLane="0"/>

    <connection from="-109232842#7" to="109235741#1" fromLane="0" toLane="0"/>
    <connection from="-109232842#7" to="-109232842#6" fromLane="0" toLane="0"/>
    <connection from="-109232842#7" to="-109235741#0" fromLane="0" toLane="0"/>
    <connection from="-109232842#7" to="109232842#7" fromLane="0" toLane="0"/>

    <connection from="-109232842#8" to="-107807114#0" fromLane="0" toLane="0"/>
    <connection from="-109232842#8" to="-109232842#7" fromLane="0" toLane="0"/>
    <connection from="-109232842#8" to="107807114#1" fromLane="0" toLane="0"/>
    <connection from="-109232842#8" to="109232842#8" fromLane="0" toLane="0"/>

    <connection from="-109232842#9" to="-109235736#0" fromLane="0" toLane="0"/>
    <connection from="-109232842#9" to="-109232842#8" fromLane="0" toLane="0"/>
    <connection from="-109232842#9" to="109235736#1" fromLane="0" toLane="0"/>
    <connection from="-109232842#9" to="109232842#9" fromLane="0" toLane="0"/>

    <connection from="-109232843#2" to="-32659703#4" fromLane="0" toLane="0"/>

    <connection from="-109235729#5" to="-107807114#1" fromLane="0" toLane="0"/>

    <connection from="-109235730#0" to="146263243#0" fromLane="0" toLane="0"/>

    <connection from="-109235733#0" to="-32661651" fromLane="0" toLane="0"/>

    <connection from="-109235733#4" to="-146263243#1" fromLane="0" toLane="0"/>
    <connection from="-109235733#4" to="-109235733#0" fromLane="0" toLane="0"/>
    <connection from="-109235733#4" to="146263243#2" fromLane="0" toLane="0"/>
    <connection from="-109235733#4" to="109235733#1" fromLane="0" toLane="0"/>

    <connection from="-109235733#5" to="78173837" fromLane="0" toLane="0"/>
    <connection from="-109235733#5" to="-109235733#4" fromLane="0" toLane="0"/>
    <connection from="-109235733#5" to="109235733#5" fromLane="0" toLane="0"/>

    <connection from="-109235734" to="-109235737#7" fromLane="0" toLane="0"/>

    <connection from="-109235735#0" to="-87596737#6" fromLane="0" toLane="0"/>

    <connection from="-109235735#2" to="32661655#4" fromLane="0" toLane="0"/>
    <connection from="-109235735#2" to="-109235735#0" fromLane="0" toLane="0"/>
    <connection from="-109235735#2" to="-32661655#3" fromLane="0" toLane="0"/>
    <connection from="-109235735#2" to="109235735#1" fromLane="0" toLane="0"/>

    <connection from="-109235736#0" to="146267759#0" fromLane="0" toLane="0"/>

    <connection from="-109235736#1" to="109232842#9" fromLane="0" toLane="0"/>
    <connection from="-109235736#1" to="-109235736#0" fromLane="0" toLane="0"/>
    <connection from="-109235736#1" to="-109232842#8" fromLane="0" toLane="0"/>
    <connection from="-109235736#1" to="109235736#1" fromLane="0" toLane="0"/>

    <connection from="-109235737#0" to="-129787445#1" fromLane="0" toLane="0"/>

    <connection from="-109235737#1" to="-109235737#0" fromLane="0" toLane="0"/>
    <connection from="-109235737#1" to="-107904933" fromLane="0" toLane="0"/>
    <connection from="-109235737#1" to="109235737#1" fromLane="0" toLane="0"/>

    <connection from="-109235737#3" to="87579483#0" fromLane="0" toLane="0"/>
    <connection from="-109235737#3" to="-109235737#1" fromLane="0" toLane="0"/>
    <connection from="-109235737#3" to="129787425#0" fromLane="0" toLane="0"/>
    <connection from="-109235737#3" to="109235737#2" fromLane="0" toLane="0"/>

    <connection from="-109235737#5" to="32661652" fromLane="0" toLane="0"/>
    <connection from="-109235737#5" to="-109235737#3" fromLane="0" toLane="0"/>
    <connection from="-109235737#5" to="-109235740" fromLane="0" toLane="0"/>
    <connection from="-109235737#5" to="109235737#4" fromLane="0" toLane="0"/>

    <connection from="-109235737#6" to="-109235737#5" fromLane="0" toLane="0"/>
    <connection from="-109235737#6" to="32661650#0" fromLane="0" toLane="0"/>
    <connection from="-109235737#6" to="109235737#6" fromLane="0" toLane="0"/>

    <connection from="-109235737#7" to="109232842#2" fromLane="0" toLane="0"/>
    <connection from="-109235737#7" to="-109235737#6" fromLane="0" toLane="0"/>
    <connection from="-109235737#7" to="-109232842#1" fromLane="0" toLane="0"/>
    <connection from="-109235737#7" to="109235737#7" fromLane="0" toLane="0"/>

    <connection from="-109235738" to="-32661652" fromLane="0" toLane="0"/>

    <connection from="-109235739#6" to="-109235736#1" fromLane="0" toLane="0"/>

    <connection from="-109235740" to="-109235733#5" fromLane="0" toLane="0"/>

    <connection from="-109235741#0" to="-146267767#3" fromLane="0" toLane="0"/>

    <connection from="-109235741#1" to="-109232842#6" fromLane="0" toLane="0"/>
    <connection from="-109235741#1" to="-109235741#0" fromLane="0" toLane="0"/>
    <connection from="-109235741#1" to="109232842#7" fromLane="0" toLane="0"/>
    <connection from="-109235741#1" to="109235741#1" fromLane="0" toLane="0"/>

    <connection from="-109235742#0" to="-87608816" fromLane="0" toLane="0"/>

    <connection from="-109235742#3" to="-71080099" fromLane="0" toLane="0"/>
    <connection from="-109235742#3" to="-109235742#0" fromLane="0" toLane="0"/>
    <connection from="-109235742#3" to="109235742#1" fromLane="0" toLane="0"/>

    <connection from="-109300669#0" to="361579606#0" fromLane="0" toLane="0"/>
    <connection from="-109300669#0" to="143821023#0" fromLane="0" toLane="0"/>
    <connection from="-109300669#0" to="498859660#1" fromLane="0" toLane="2"/>
    <connection from="-109300669#0" to="109300669#0" fromLane="0" toLane="0"/>

    <connection from="-109300669#2" to="-142484076#0" fromLane="0" toLane="0"/>
    <connection from="-109300669#2" to="-109300669#0" fromLane="0" toLane="0"/>
    <connection from="-109300669#2" to="142484076#1" fromLane="0" toLane="0"/>
    <connection from="-109300669#2" to="109300669#1" fromLane="0" toLane="0"/>

    <connection from="-10972673#2" to="51834237#0" fromLane="0" toLane="0"/>
    <connection from="-10972673#2" to="272706537#0" fromLane="0" toLane="0"/>
    <connection from="-10972673#2" to="-51835565#1" fromLane="0" toLane="0"/>
    <connection from="-10972673#2" to="10972673#1" fromLane="0" toLane="0"/>

    <connection from="-10972673#4" to="51834242#0" fromLane="0" toLane="0"/>
    <connection from="-10972673#4" to="-10972673#2" fromLane="0" toLane="0"/>
    <connection from="-10972673#4" to="10972673#3" fromLane="0" toLane="0"/>

    <connection from="-10999226" to="10999180#1" fromLane="0" toLane="0"/>
    <connection from="-10999226" to="10999226" fromLane="0" toLane="0"/>

    <connection from="-10999615#5" to="-510335856#2" fromLane="0" toLane="0"/>
    <connection from="-10999615#5" to="11846072#0" fromLane="0" toLane="0"/>
    <connection from="-10999615#5" to="10999615#0" fromLane="0" toLane="0"/>

    <connection from="-10999615#9" to="-146224557#14" fromLane="0" toLane="0"/>
    <connection from="-10999615#9" to="-10999615#5" fromLane="0" toLane="0"/>
    <connection from="-10999615#9" to="10999615#6" fromLane="0" toLane="0"/>

    <connection from="-110788481" to="19752113#1" fromLane="0" toLane="0"/>
    <connection from="-110788481" to="-19752113#0" fromLane="0" toLane="0"/>
    <connection from="-110788481" to="-23825081#1" fromLane="0" toLane="0"/>

    <connection from="-110794885#0" to="23338808#12" fromLane="0" toLane="0"/>
    <connection from="-110794885#0" to="-23338808#11" fromLane="0" toLane="0"/>
    <connection from="-110794885#0" to="23726425" fromLane="0" toLane="0"/>

    <connection from="-110794885#1" to="107079116#0" fromLane="0" toLane="0"/>
    <connection from="-110794885#1" to="-110794885#0" fromLane="0" toLane="0"/>
    <connection from="-110794885#1" to="110794885#1" fromLane="0" toLane="0"/>

    <connection from="-110794887#0" to="-107079109#2" fromLane="0" toLane="0"/>
    <connection from="-110794887#0" to="-107079119" fromLane="0" toLane="0"/>
    <connection from="-110794887#0" to="107079109#3" fromLane="0" toLane="0"/>

    <connection from="-110794887#2" to="-110794887#0" fromLane="0" toLane="0"/>
    <connection from="-110794887#2" to="107079111" fromLane="0" toLane="0"/>
    <connection from="-110794887#2" to="110794887#1" fromLane="0" toLane="0"/>

    <connection from="-110794887#3" to="-110794887#2" fromLane="0" toLane="0"/>
    <connection from="-110794887#3" to="167140458" fromLane="0" toLane="0"/>
    <connection from="-110794887#3" to="110794887#3" fromLane="0" toLane="0"/>

    <connection from="-111555073#3" to="111555072#0" fromLane="0" toLane="0"/>
    <connection from="-111555073#3" to="111555072#0" fromLane="0" toLane="1"/>
    <connection from="-111555073#3" to="111555072#0" fromLane="0" toLane="2"/>

    <connection from="-11157838#0" to="-77491280#0" fromLane="0" toLane="0"/>
    <connection from="-11157838#0" to="11157601#0" fromLane="0" toLane="0"/>
    <connection from="-11157838#0" to="77491280#1" fromLane="0" toLane="0"/>
    <connection from="-11157838#0" to="11157838#0" fromLane="0" toLane="0"/>

    <connection from="-11157838#1" to="-11157838#0" fromLane="0" toLane="0"/>
    <connection from="-11157838#1" to="11157758" fromLane="0" toLane="0"/>
    <connection from="-11157838#1" to="11157838#1" fromLane="0" toLane="0"/>

    <connection from="-11157874" to="620184201#0" fromLane="0" toLane="0"/>
    <connection from="-11157874" to="18823380" fromLane="0" toLane="0"/>
    <connection from="-11157874" to="-9411818#1" fromLane="0" toLane="0"/>
    <connection from="-11157874" to="11157874" fromLane="0" toLane="0"/>

    <connection from="-11158190#1" to="18930278#0" fromLane="0" toLane="0"/>
    <connection from="-11158190#1" to="-38982462#1" fromLane="0" toLane="0"/>
    <connection from="-11158190#1" to="11158190#0" fromLane="0" toLane="0"/>

    <connection from="-11158190#3" to="-11158190#1" fromLane="0" toLane="0"/>
    <connection from="-11158190#3" to="11158190#2" fromLane="0" toLane="0"/>

    <connection from="-11158602#3" to="31576529#1" fromLane="0" toLane="0"/>
    <connection from="-11158602#3" to="11158602#0" fromLane="0" toLane="0"/>

    <connection from="-11158661#1" to="-32805031" fromLane="0" toLane="0"/>
    <connection from="-11158661#1" to="-152008875#2" fromLane="0" toLane="0"/>
    <connection from="-11158661#1" to="11158661#0" fromLane="0" toLane="0"/>

    <connection from="-11158893#4" to="498918217#3" fromLane="0" toLane="0"/>
    <connection from="-11158893#4" to="11158893#0" fromLane="0" toLane="0"/>

    <connection from="-11280777#1" to="-394850634" fromLane="0" toLane="0"/>
    <connection from="-11280777#1" to="-394850634" fromLane="0" toLane="1"/>
    <connection from="-11280777#1" to="11280897#0" fromLane="0" toLane="0"/>

    <connection from="-11280777#4" to="-11280777#1" fromLane="0" toLane="0"/>
    <connection from="-11280777#4" to="107620891#0" fromLane="0" toLane="0"/>
    <connection from="-11280777#4" to="11280777#2" fromLane="0" toLane="0"/>

    <connection from="-11280897#4" to="11280777#0" fromLane="0" toLane="0"/>
    <connection from="-11280897#4" to="-394850634" fromLane="0" toLane="1"/>

    <connection from="-11280931#2" to="-279054987" fromLane="0" toLane="0"/>
    <connection from="-11280931#2" to="-279054982" fromLane="0" toLane="0"/>
    <connection from="-11280931#2" to="-46766460" fromLane="0" toLane="0"/>

    <connection from="-11831576#0" to="-147077534#2" fromLane="0" toLane="0"/>
    <connection from="-11831576#0" to="429793777#1" fromLane="0" toLane="0"/>
    <connection from="-11831576#0" to="147077534#3" fromLane="0" toLane="0"/>
    <connection from="-11831576#0" to="-429793777#0" fromLane="0" toLane="0"/>

    <connection from="-11831576#10" to="23299834#0" fromLane="0" toLane="0"/>
    <connection from="-11831576#10" to="-11831576#8" fromLane="0" toLane="0"/>
    <connection from="-11831576#10" to="11831576#9" fromLane="0" toLane="0"/>

    <connection from="-11831576#12" to="-11831576#10" fromLane="0" toLane="0"/>
    <connection from="-11831576#12" to="11831576#11" fromLane="0" toLane="0"/>

    <connection from="-11831576#4" to="-11831576#0" fromLane="0" toLane="0"/>
    <connection from="-11831576#4" to="18817787" fromLane="0" toLane="0"/>
    <connection from="-11831576#4" to="11831576#2" fromLane="0" toLane="0"/>

    <connection from="-11831576#5" to="-11831576#4" fromLane="0" toLane="0"/>
    <connection from="-11831576#5" to="-18817826" fromLane="0" toLane="0"/>
    <connection from="-11831576#5" to="11831576#5" fromLane="0" toLane="0"/>

    <connection from="-11831576#7" to="-11831576#5" fromLane="0" toLane="0"/>
    <connection from="-11831576#7" to="-18890382" fromLane="0" toLane="0"/>
    <connection from="-11831576#7" to="11831576#7" fromLane="0" toLane="0"/>

    <connection from="-11831576#8" to="-11831576#7" fromLane="0" toLane="0"/>
    <connection from="-11831576#8" to="18817814#0" fromLane="0" toLane="0"/>
    <connection from="-11831576#8" to="11831576#8" fromLane="0" toLane="0"/>

    <connection from="-11837086#3" to="161486868#0" fromLane="0" toLane="0"/>
    <connection from="-11837086#3" to="161486823#0" fromLane="0" toLane="0"/>
    <connection from="-11837086#3" to="161486858#0" fromLane="0" toLane="0"/>

    <connection from="-11837086#5" to="-11837086#3" fromLane="0" toLane="0"/>
    <connection from="-11837086#5" to="146070360#0" fromLane="0" toLane="0"/>
    <connection from="-11837086#5" to="11837086#4" fromLane="0" toLane="0"/>

    <connection from="-11837086#7" to="-146267765#7" fromLane="0" toLane="0"/>
    <connection from="-11837086#7" to="-11837086#5" fromLane="0" toLane="0"/>
    <connection from="-11837086#7" to="-32659756#2" fromLane="0" toLane="0"/>
    <connection from="-11837086#7" to="11837086#6" fromLane="0" toLane="0"/>

    <connection from="-11837086#8" to="-11837086#7" fromLane="0" toLane="0"/>
    <connection from="-11837086#8" to="32659755#0" fromLane="0" toLane="0"/>
    <connection from="-11837086#8" to="11837086#8" fromLane="0" toLane="0"/>

    <connection from="-11837090#3" to="34245303#2" fromLane="0" toLane="0"/>
    <connection from="-11837090#3" to="-77102349#13" fromLane="0" toLane="0"/>
    <connection from="-11837090#3" to="-34245303#1" fromLane="0" toLane="0"/>
    <connection from="-11837090#3" to="11837090#0" fromLane="0" toLane="0"/>

    <connection from="-11837090#9" to="-11837090#3" fromLane="0" toLane="0"/>
    <connection from="-11837090#9" to="42200715#0" fromLane="0" toLane="0"/>
    <connection from="-11837090#9" to="11837090#4" fromLane="0" toLane="0"/>

    <connection from="-11837091#1" to="78543270#2" fromLane="0" toLane="0"/>
    <connection from="-11837091#1" to="50635410#0" fromLane="0" toLane="0"/>
    <connection from="-11837091#1" to="-78543270#1" fromLane="0" toLane="0"/>
    <connection from="-11837091#1" to="11837091#0" fromLane="0" toLane="0"/>

    <connection from="-11837091#11" to="-498678909#10" fromLane="0" toLane="0"/>
    <connection from="-11837091#11" to="-11837091#7" fromLane="0" toLane="0"/>
    <connection from="-11837091#11" to="-82443416#1" fromLane="0" toLane="0"/>
    <connection from="-11837091#11" to="11837091#9" fromLane="0" toLane="0"/>

    <connection from="-11837091#3" to="-809137261#17" fromLane="0" toLane="0"/>
    <connection from="-11837091#3" to="-11837091#1" fromLane="0" toLane="0"/>
    <connection from="-11837091#3" to="11837091#2" fromLane="0" toLane="0"/>

    <connection from="-11837091#4" to="36889986" fromLane="0" toLane="0"/>
    <connection from="-11837091#4" to="-11837091#3" fromLane="0" toLane="0"/>
    <connection from="-11837091#4" to="11837091#4" fromLane="0" toLane="0"/>

    <connection from="-11837091#7" to="36889984" fromLane="0" toLane="0"/>
    <connection from="-11837091#7" to="-11837091#4" fromLane="0" toLane="0"/>
    <connection from="-11837091#7" to="11837091#5" fromLane="0" toLane="0"/>

    <connection from="-11846072#1" to="10999615#0" fromLane="0" toLane="0"/>
    <connection from="-11846072#1" to="-510335856#2" fromLane="0" toLane="0"/>
    <connection from="-11846072#1" to="11846072#0" fromLane="0" toLane="0"/>

    <connection from="-11846072#10" to="-11846072#7" fromLane="0" toLane="0"/>
    <connection from="-11846072#10" to="45329792" fromLane="0" toLane="0"/>
    <connection from="-11846072#10" to="11846072#8" fromLane="0" toLane="0"/>

    <connection from="-11846072#11" to="375855456" fromLane="0" toLane="0"/>
    <connection from="-11846072#11" to="-11846072#10" fromLane="0" toLane="0"/>
    <connection from="-11846072#11" to="11846072#11" fromLane="0" toLane="0"/>

    <connection from="-11846072#6" to="-11846072#1" fromLane="0" toLane="0"/>
    <connection from="-11846072#6" to="37179007#0" fromLane="0" toLane="0"/>
    <connection from="-11846072#6" to="11846072#2" fromLane="0" toLane="0"/>

    <connection from="-11846072#7" to="-11846072#6" fromLane="0" toLane="0"/>
    <connection from="-11846072#7" to="11846072#7" fromLane="0" toLane="0"/>

    <connection from="-11846089#3" to="-728192374#1" fromLane="0" toLane="0"/>
    <connection from="-11846089#3" to="-16113239#1" fromLane="0" toLane="0"/>
    <connection from="-11846089#3" to="728192374#2" fromLane="0" toLane="0"/>

    <connection from="-11846090#1" to="440140529" fromLane="0" toLane="0"/>
    <connection from="-11846090#1" to="11846090#0" fromLane="0" toLane="0"/>

    <connection from="-11854769" to="11854772#0" fromLane="0" toLane="0"/>

    <connection from="-11854772#3" to="11854769" fromLane="0" toLane="0"/>

    <connection from="-12948945#0" to="12948947#0" fromLane="0" toLane="0"/>

    <connection from="-12948945#2" to="-12948945#0" fromLane="0" toLane="0"/>
    <connection from="-12948945#2" to="12948945#1" fromLane="0" toLane="0"/>

    <connection from="-129777429" to="142490503#3" fromLane="0" toLane="0"/>
    <connection from="-129777429" to="-142490503#2" fromLane="0" toLane="0"/>
    <connection from="-129777429" to="129777429" fromLane="0" toLane="0"/>

    <connection from="-129777430#3" to="142490494#8" fromLane="0" toLane="0"/>
    <connection from="-129777430#3" to="-142490494#7" fromLane="0" toLane="0"/>
    <connection from="-129777430#3" to="129777430#0" fromLane="0" toLane="0"/>

    <connection from="-129777431" to="142490494#4" fromLane="0" toLane="0"/>
    <connection from="-129777431" to="-142490494#3" fromLane="0" toLane="0"/>
    <connection from="-129777431" to="129777431" fromLane="0" toLane="0"/>

    <connection from="-129777433" to="142490494#2" fromLane="0" toLane="0"/>
    <connection from="-129777433" to="-142490494#1" fromLane="0" toLane="0"/>
    <connection from="-129777433" to="129777433" fromLane="0" toLane="0"/>

    <connection from="-129777434" to="142490494#9" fromLane="0" toLane="0"/>
    <connection from="-129777434" to="-142490494#8" fromLane="0" toLane="0"/>
    <connection from="-129777434" to="129777434" fromLane="0" toLane="0"/>

    <connection from="-129777435#2" to="142490494#7" fromLane="0" toLane="0"/>
    <connection from="-129777435#2" to="-142490494#6" fromLane="0" toLane="0"/>
    <connection from="-129777435#2" to="129777435#0" fromLane="0" toLane="0"/>

    <connection from="-129777436#1" to="129777446#2" fromLane="0" toLane="0"/>
    <connection from="-129777436#1" to="-129777446#1" fromLane="0" toLane="0"/>
    <connection from="-129777436#1" to="129777436#0" fromLane="0" toLane="0"/>

    <connection from="-129777437#0" to="-24757522#6" fromLane="0" toLane="0"/>
    <connection from="-129777437#0" to="24757522#7" fromLane="0" toLane="0"/>

    <connection from="-129777437#1" to="24733661#2" fromLane="0" toLane="0"/>
    <connection from="-129777437#1" to="-129777437#0" fromLane="0" toLane="0"/>
    <connection from="-129777437#1" to="-24733661#1" fromLane="0" toLane="0"/>
    <connection from="-129777437#1" to="129777437#1" fromLane="0" toLane="0"/>

    <connection from="-129777437#2" to="26534605#2" fromLane="0" toLane="0"/>
    <connection from="-129777437#2" to="-129777437#1" fromLane="0" toLane="0"/>
    <connection from="-129777437#2" to="-26534605#1" fromLane="0" toLane="0"/>
    <connection from="-129777437#2" to="129777437#2" fromLane="0" toLane="0"/>

    <connection from="-129777437#4" to="-26534562#0" fromLane="0" toLane="0"/>
    <connection from="-129777437#4" to="-129777437#2" fromLane="0" toLane="0"/>
    <connection from="-129777437#4" to="26534562#1" fromLane="0" toLane="0"/>
    <connection from="-129777437#4" to="129777437#3" fromLane="0" toLane="0"/>

    <connection from="-129777438#1" to="129777446#8" fromLane="0" toLane="0"/>
    <connection from="-129777438#1" to="-129777446#7" fromLane="0" toLane="0"/>
    <connection from="-129777438#1" to="129777438#0" fromLane="0" toLane="0"/>

    <connection from="-129777439#1" to="142490494#1" fromLane="0" toLane="0"/>
    <connection from="-129777439#1" to="-142490494#0" fromLane="0" toLane="0"/>
    <connection from="-129777439#1" to="129777439#0" fromLane="0" toLane="0"/>

    <connection from="-129777440#1" to="-39219528#9" fromLane="0" toLane="0"/>
    <connection from="-129777440#1" to="-8101186" fromLane="0" toLane="0"/>
    <connection from="-129777440#1" to="39219528#10" fromLane="0" toLane="0"/>
    <connection from="-129777440#1" to="129777440#0" fromLane="0" toLane="0"/>

    <connection from="-129777446#1" to="49031494#10" fromLane="0" toLane="0"/>
    <connection from="-129777446#1" to="-8101187#18" fromLane="0" toLane="0"/>