<?xml version="1.0" encoding="UTF-8"?>

<!-- generated on 11/07/20 15:43:58 by Eclipse SUMO netconvert Version v1_7_0+0879-aea7511197
<configuration xmlns:xsi="http://www.w3.org/2001/XMLSchema-instance" xsi:noNamespaceSchemaLocation="http://sumo.dlr.de/xsd/netconvertConfiguration.xsd">

    <input>
        <sumo-net-file value="osm.net.xml"/>
    </input>

    <output>
        <plain-output-prefix value="F:\polyhack\trafficmap\aarhus"/>
        <output.street-names value="true"/>
    </output>

    <processing>
        <geometry.min-radius.fix.railways value="false"/>
        <geometry.max-grade.fix value="false"/>
        <offset.disable-normalization value="true"/>
        <lefthand value="false"/>
    </processing>

    <junctions>
        <no-turnarounds value="true"/>
        <junctions.corner-detail value="5"/>
        <junctions.limit-turn-speed value="5.5"/>
        <rectangular-lane-cut value="false"/>
    </junctions>

    <pedestrian>
        <walkingareas value="false"/>
    </pedestrian>

    <report>
        <aggregate-warnings value="5"/>
    </report>

</configuration>
-->

<tlLogics version="1.6" xmlns:xsi="http://www.w3.org/2001/XMLSchema-instance" xsi:noNamespaceSchemaLocation="http://sumo.dlr.de/xsd/tllogic_file.xsd">
    <tlLogic id="1036716424" type="actuated" programID="0" offset="0">
        <phase duration="18" state="GrrrrrrrrrrGGGg" minDur="5" maxDur="50"/>
        <phase duration="3"  state="yrrrrrrrrrryyyy"/>
        <phase duration="20" state="rrrrGGgGrrgGrrr" minDur="5" maxDur="50"/>
        <phase duration="3"  state="rrrryyyyrryyrrr"/>
        <phase duration="20" state="rrrrrrrGGGgGrrr" minDur="5" maxDur="50"/>
        <phase duration="3"  state="rrrrrrryyyyyrrr"/>
        <phase duration="20" state="GGGgGrrrrrrrrrr" minDur="5" maxDur="50"/>
        <phase duration="3"  state="yyyyyrrrrrrrrrr"/>
    </tlLogic>
    <tlLogic id="106034511" type="actuated" programID="0" offset="0">
        <phase duration="33" state="rrrrGGggrrrGGGg" minDur="5" maxDur="50"/>
        <phase duration="3"  state="rrrryyggrrryyyg"/>
        <phase duration="6"  state="rrrrrrGGrrrrrrG" minDur="5" maxDur="50"/>
        <phase duration="3"  state="rrrrrryyrrrrrry"/>
        <phase duration="33" state="GGGgrrrrGGgrrrr" minDur="5" maxDur="50"/>
        <phase duration="3"  state="yyygrrrryygrrrr"/>
        <phase duration="6"  state="rrrGrrrrrrGrrrr" minDur="5" maxDur="50"/>
        <phase duration="3"  state="rrryrrrrrryrrrr"/>
    </tlLogic>
    <tlLogic id="106078516" type="actuated" programID="0" offset="0">
        <phase duration="41" state="rrrrGGggrrrrGGgg" minDur="7" maxDur="50"/>
        <phase duration="4"  state="rrrryyyyrrrryyyy"/>
        <phase duration="41" state="GGggrrrrGGggrrrr" minDur="5" maxDur="50"/>
        <phase duration="4"  state="yyyyrrrryyyyrrrr"/>
    </tlLogic>
    <tlLogic id="106224010" type="static" programID="0" offset="0">
        <phase duration="42" state="GGGgrr"/>
        <phase duration="3"  state="yyyyrr"/>
        <phase duration="42" state="GrrrGG"/>
        <phase duration="3"  state="yrrryy"/>
    </tlLogic>
    <tlLogic id="106224483" type="actuated" programID="0" offset="0">
        <phase duration="42" state="GggrrrGGg" minDur="5" maxDur="50"/>
        <phase duration="3"  state="yyyrrryyy"/>
        <phase duration="42" state="rrrGGgGrr" minDur="5" maxDur="50"/>
        <phase duration="3"  state="rrryyyyrr"/>
    </tlLogic>
    <tlLogic id="106351706" type="actuated" programID="0" offset="0">
        <phase duration="42" state="GGgrrrGgg" minDur="5" maxDur="50"/>
        <phase duration="3"  state="yyyrrryyy"/>
        <phase duration="42" state="rrrGGGrrr" minDur="5" maxDur="50"/>
        <phase duration="3"  state="rrryyyrrr"/>
    </tlLogic>
    <tlLogic id="106351710" type="actuated" programID="0" offset="0">
        <phase duration="38" state="rrrrGGggrrrGGgg" minDur="5" maxDur="50"/>
        <phase duration="3"  state="rrrryyggrrryygg"/>
        <phase duration="6"  state="rrrrrrGGrrrrrGG" minDur="5" maxDur="50"/>
        <phase duration="3"  state="rrrrrryyrrrrryy"/>
        <phase duration="37" state="GGggrrrrGGgrrrr" minDur="5" maxDur="50"/>
        <phase duration="3"  state="yyyyrrrryyyrrrr"/>
    </tlLogic>
    <tlLogic id="106351727" type="actuated" programID="0" offset="0">
        <phase duration="27" state="GGgrrrGggrrr" minDur="5" maxDur="50"/>
        <phase duration="3"  state="yyyrrryyyrrr"/>
        <phase duration="27" state="rrrGGGrrrrrr" minDur="5" maxDur="50"/>
        <phase duration="3"  state="rrryyyrrrrrr"/>
        <phase duration="27" state="GrrrrrrrrGGg" minDur="5" maxDur="50"/>
        <phase duration="3"  state="yrrrrrrrryyy"/>
    </tlLogic>
    <tlLogic id="1237100941" type="actuated" programID="0" offset="0">
        <phase duration="27" state="rrrrrrGGG" minDur="5" maxDur="50"/>
        <phase duration="3"  state="rrrrrryyy"/>
        <phase duration="27" state="rrrGGgGrr" minDur="5" maxDur="50"/>
        <phase duration="3"  state="rrryyyyrr"/>
        <phase duration="27" state="GGgGrrrrr" minDur="5" maxDur="50"/>
        <phase duration="3"  state="yyyyrrrrr"/>
    </tlLogic>
    <tlLogic id="1556124022" type="actuated" programID="0" offset="0">
        <phase duration="41" state="rrrGGgGgg" minDur="5" maxDur="50"/>
        <phase duration="4"  state="rrryyyyyy"/>
        <phase duration="41" state="GGgGrrrrr" minDur="7" maxDur="50"/>
        <phase duration="4"  state="yyyyrrrrr"/>
    </tlLogic>
    <tlLogic id="1556124080" type="actuated" programID="0" offset="0">
        <phase duration="42" state="GGggrrrrGGggrrrr" minDur="5" maxDur="50"/>
        <phase duration="3"  state="yyyyrrrryyyyrrrr"/>
        <phase duration="42" state="rrrrGGggrrrrGGgg" minDur="5" maxDur="50"/>
        <phase duration="3"  state="rrrryyyyrrrryyyy"/>
    </tlLogic>
    <tlLogic id="1556124131" type="actuated" programID="0" offset="0">
        <phase duration="36" state="GGggrrrrGGggrrrr" minDur="7" maxDur="50"/>
        <phase duration="4"  state="yyggrrrryyggrrrr"/>
        <phase duration="6"  state="rrGGrrrrrrGGrrrr" minDur="7" maxDur="50"/>
        <phase duration="4"  state="rryyrrrrrryyrrrr"/>
        <phase duration="36" state="rrrrGGggrrrrGGgg" minDur="5" maxDur="50"/>
        <phase duration="4"  state="rrrryyyyrrrryyyy"/>
    </tlLogic>
    <tlLogic id="1556124557" type="actuated" programID="0" offset="0">
        <phase duration="40" state="rrrrrGGggrrrrrGGgg" minDur="10" maxDur="50"/>
        <phase duration="5"  state="rrrrryyyyrrrrryyyy"/>
        <phase duration="40" state="GGGggrrrrGGGggrrrr" minDur="7" maxDur="50"/>
        <phase duration="5"  state="yyyyyrrrryyyyyrrrr"/>
    </tlLogic>
    <tlLogic id="1559349638" type="actuated" programID="0" offset="0">
        <phase duration="16" state="rrrrrrrrGGGgGrrr" minDur="10" maxDur="50"/>
        <phase duration="5"  state="rrrrrrrryyyyyrrr"/>
        <phase duration="18" state="rrrrGGGgGrrrrrrr" minDur="5" maxDur="50"/>
        <phase duration="5"  state="rrrryyyyyrrrrrrr"/>
        <phase duration="18" state="GrrrrrrrrrrrGGGg" minDur="5" maxDur="50"/>
        <phase duration="5"  state="yrrrrrrrrrrryyyy"/>
        <phase duration="18" state="GGGgGrrrrrrrrrrr" minDur="5" maxDur="50"/>
        <phase duration="5"  state="yyyyyrrrrrrrrrrr"/>
    </tlLogic>
    <tlLogic id="1561586031" type="actuated" programID="0" offset="0">
        <phase duration="41" state="GGrr" minDur="7" maxDur="50"/>
        <phase duration="4"  state="yyrr"/>
        <phase duration="41" state="rrGG" minDur="7" maxDur="50"/>
        <phase duration="4"  state="rryy"/>
    </tlLogic>
    <tlLogic id="1602666766" type="actuated" programID="0" offset="0">
        <phase duration="42" state="rrrrGGggrrrrGGgg" minDur="5" maxDur="50"/>
        <phase duration="3"  state="rrrryyyyrrrryyyy"/>
        <phase duration="42" state="GGggrrrrGGggrrrr" minDur="5" maxDur="50"/>
        <phase duration="3"  state="yyyyrrrryyyyrrrr"/>
    </tlLogic>
    <tlLogic id="1602666888" type="actuated" programID="0" offset="0">
        <phase duration="38" state="GGggrrrrGGgrrrr" minDur="5" maxDur="50"/>
        <phase duration="3"  state="yyggrrrryyyrrrr"/>
        <phase duration="6"  state="GGGGrrrrrrrrrrr" minDur="5" maxDur="50"/>
        <phase duration="3"  state="yyyyrrrrrrrrrrr"/>
        <phase duration="37" state="rrrrGGggrrrGGgg" minDur="5" maxDur="50"/>
        <phase duration="3"  state="rrrryyyyrrryyyy"/>
    </tlLogic>
    <tlLogic id="162451498" type="actuated" programID="0" offset="0">
        <phase duration="42" state="GGggGGggrrrr" minDur="5" maxDur="50"/>
        <phase duration="3"  state="yyyyyyyyrrrr"/>
        <phase duration="42" state="GrrrrrrrGGGg" minDur="5" maxDur="50"/>
        <phase duration="3"  state="yrrrrrrryyyy"/>
    </tlLogic>
    <tlLogic id="175676439" type="actuated" programID="0" offset="0">
        <phase duration="42" state="GgrrGG" minDur="5" maxDur="50"/>
        <phase duration="3"  state="yyrryy"/>
        <phase duration="42" state="rrGGGr" minDur="5" maxDur="50"/>
        <phase duration="3"  state="rryyyr"/>
    </tlLogic>
    <tlLogic id="211513947" type="actuated" programID="0" offset="0">
        <phase duration="42" state="rrrrGGggrrrrGGgg" minDur="5" maxDur="50"/>
        <phase duration="3"  state="rrrryyyyrrrryyyy"/>
        <phase duration="42" state="GGggrrrrGGggrrrr" minDur="5" maxDur="50"/>
        <phase duration="3"  state="yyyyrrrryyyyrrrr"/>
    </tlLogic>
    <tlLogic id="211515387" type="actuated" programID="0" offset="0">
        <phase duration="42" state="rrrrGGggrrrrGGgg" minDur="5" maxDur="50"/>
        <phase duration="3"  state="rrrryyyyrrrryyyy"/>
        <phase duration="42" state="GGggrrrrGGggrrrr" minDur="5" maxDur="50"/>
        <phase duration="3"  state="yyyyrrrryyyyrrrr"/>
    </tlLogic>
    <tlLogic id="211515392" type="actuated" programID="0" offset="0">
        <phase duration="42" state="rrrrGGggrrrrGGgg" minDur="5" maxDur="50"/>
        <phase duration="3"  state="rrrryyyyrrrryyyy"/>
        <phase duration="42" state="GGggrrrrGGggrrrr" minDur="5" maxDur="50"/>
        <phase duration="3"  state="yyyyrrrryyyyrrrr"/>
    </tlLogic>
    <tlLogic id="253267351" type="actuated" programID="0" offset="0">
        <phase duration="41" state="rrrrGGggrrrrGGgg" minDur="7" maxDur="50"/>
        <phase duration="4"  state="rrrryyyyrrrryyyy"/>
        <phase duration="41" state="GGggrrrrGGggrrrr" minDur="5" maxDur="50"/>
        <phase duration="4"  state="yyyyrrrryyyyrrrr"/>
    </tlLogic>
    <tlLogic id="269030650" type="actuated" programID="0" offset="0">
        <phase duration="42" state="rrrrGGggrrrrGGgg" minDur="5" maxDur="50"/>
        <phase duration="3"  state="rrrryyyyrrrryyyy"/>
        <phase duration="42" state="GGggrrrrGGggrrrr" minDur="5" maxDur="50"/>
        <phase duration="3"  state="yyyyrrrryyyyrrrr"/>
    </tlLogic>
    <tlLogic id="2831935156" type="actuated" programID="0" offset="0">
        <phase duration="41" state="GGgrrrGGgrrr" minDur="7" maxDur="50"/>
        <phase duration="4"  state="yyyrrryyyrrr"/>
        <phase duration="41" state="rrrGGgrrrGGg" minDur="5" maxDur="50"/>
        <phase duration="4"  state="rrryyyrrryyy"/>
    </tlLogic>
    <tlLogic id="293011869" type="actuated" programID="0" offset="0">
        <phase duration="41" state="rrrrGGggrrrrGGgg" minDur="7" maxDur="50"/>
        <phase duration="4"  state="rrrryyyyrrrryyyy"/>
        <phase duration="41" state="GGggrrrrGGggrrrr" minDur="5" maxDur="50"/>
        <phase duration="4"  state="yyyyrrrryyyyrrrr"/>
    </tlLogic>
    <tlLogic id="338491623" type="actuated" programID="0" offset="0">
        <phase duration="82" state="G" minDur="5" maxDur="50"/>
        <phase duration="3"  state="y"/>
        <phase duration="5"  state="r"/>
    </tlLogic>
    <tlLogic id="355707337" type="static" programID="0" offset="0">
        <phase duration="42" state="GGgrrrGGG"/>
        <phase duration="3"  state="yyyrrryyy"/>
        <phase duration="42" state="GrrGGGGrr"/>
        <phase duration="3"  state="yrryyyyrr"/>
    </tlLogic>
    <tlLogic id="4902128142" type="actuated" programID="0" offset="0">
        <phase duration="40" state="GGGrr" minDur="8" maxDur="50"/>
        <phase duration="5"  state="yyyrr"/>
        <phase duration="40" state="rrrGG" minDur="10" maxDur="50"/>
        <phase duration="5"  state="rrryy"/>
    </tlLogic>
    <tlLogic id="540400650" type="actuated" programID="0" offset="0">
        <phase duration="42" state="GGgrrrGGgrrr" minDur="5" maxDur="50"/>
        <phase duration="3"  state="yyyrrryyyrrr"/>
        <phase duration="42" state="rrrGGgrrrGGg" minDur="5" maxDur="50"/>
        <phase duration="3"  state="rrryyyrrryyy"/>
    </tlLogic>
    <tlLogic id="540403743" type="actuated" programID="0" offset="0">
        <phase duration="42" state="GGggrrrrGGggrrrr" minDur="5" maxDur="50"/>
        <phase duration="3"  state="yyyyrrrryyyyrrrr"/>
        <phase duration="42" state="rrrrGGggrrrrGGgg" minDur="5" maxDur="50"/>
        <phase duration="3"  state="rrrryyyyrrrryyyy"/>
    </tlLogic>
    <tlLogic id="540414401" type="actuated" programID="0" offset="0">
        <phase duration="42" state="rrrrGGggrrrrGGgg" minDur="5" maxDur="50"/>
        <phase duration="3"  state="rrrryyyyrrrryyyy"/>
        <phase duration="42" state="GGggrrrrGGggrrrr" minDur="5" maxDur="50"/>
        <phase duration="3"  state="yyyyrrrryyyyrrrr"/>
    </tlLogic>
    <tlLogic id="60144164" type="actuated" programID="0" offset="0">
        <phase duration="42" state="GGggGGggrrrr" minDur="5" maxDur="50"/>
        <phase duration="3"  state="yyyyyyyyrrrr"/>
        <phase duration="42" state="GrrrrrrrGGGg" minDur="5" maxDur="50"/>
        <phase duration="3"  state="yrrrrrrryyyy"/>
    </tlLogic>
    <tlLogic id="60265103" type="actuated" programID="0" offset="0">
        <phase duration="33" state="GGggrrrrGGggrrrr" minDur="5" maxDur="50"/>
        <phase duration="3"  state="yyggrrrryyggrrrr"/>
        <phase duration="6"  state="rrGGrrrrrrGGrrrr" minDur="5" maxDur="50"/>
        <phase duration="3"  state="rryyrrrrrryyrrrr"/>
        <phase duration="33" state="rrrrGGggrrrrGGgg" minDur="5" maxDur="50"/>
        <phase duration="3"  state="rrrryyggrrrryygg"/>
        <phase duration="6"  state="rrrrrrGGrrrrrrGG" minDur="5" maxDur="50"/>
        <phase duration="3"  state="rrrrrryyrrrrrryy"/>
    </tlLogic>
    <tlLogic id="60691950" type="actuated" programID="0" offset="0">
        <phase duration="38" state="rrrrGGGggrrrrGGgg" minDur="5" maxDur="50"/>
        <phase duration="3"  state="rrrryyyggrrrryygg"/>
        <phase duration="6"  state="rrrrrrrGGrrrrrrGG" minDur="5" maxDur="50"/>
        <phase duration="3"  state="rrrrrrryyrrrrrryy"/>
        <phase duration="37" state="GGggrrrrrGGggrrrr" minDur="5" maxDur="50"/>
        <phase duration="3"  state="yyyyrrrrryyyyrrrr"/>
    </tlLogic>
    <tlLogic id="71459094" type="actuated" programID="0" offset="0">
        <phase duration="33" state="rrrrGGGggrrrrGGgg" minDur="5" maxDur="50"/>
        <phase duration="3"  state="rrrryyyggrrrryygg"/>
        <phase duration="6"  state="rrrrrrrGGrrrrrrGG" minDur="5" maxDur="50"/>
        <phase duration="3"  state="rrrrrrryyrrrrrryy"/>
        <phase duration="33" state="GGggrrrrrGGggrrrr" minDur="5" maxDur="50"/>
        <phase duration="3"  state="yyggrrrrryyggrrrr"/>
        <phase duration="6"  state="rrGGrrrrrrrGGrrrr" minDur="5" maxDur="50"/>
        <phase duration="3"  state="rryyrrrrrrryyrrrr"/>
    </tlLogic>
    <tlLogic id="71488712" type="actuated" programID="0" offset="0">
        <phase duration="24" state="rrrGGgrrGGG" minDur="5" maxDur="50"/>
        <phase duration="3"  state="rrryygrryyy"/>
        <phase duration="6"  state="rrrGGGrrrrr" minDur="5" maxDur="50"/>
        <phase duration="3"  state="rrryyyrrrrr"/>
        <phase duration="24" state="GGGrrrrrrrr" minDur="5" maxDur="50"/>
        <phase duration="3"  state="yyyrrrrrrrr"/>
        <phase duration="24" state="rrrrrrGGGrr" minDur="5" maxDur="50"/>
        <phase duration="3"  state="rrrrrryyyrr"/>
    </tlLogic>
    <tlLogic id="75602571" type="actuated" programID="0" offset="0">
        <phase duration="82" state="GgGg" minDur="5" maxDur="50"/>
        <phase duration="3"  state="yyyy"/>
        <phase duration="5"  state="rrrr"/>
    </tlLogic>
    <tlLogic id="97987110" type="actuated" programID="0" offset="0">
        <phase duration="82" state="GggGGg" minDur="5" maxDur="50"/>
        <phase duration="3"  state="yyyyyy"/>
        <phase duration="5"  state="rrrrrr"/>
    </tlLogic>
    <tlLogic id="GS_117366" type="actuated" programID="0" offset="0">
        <phase duration="24" state="rrrGggrrrGGGg" minDur="5" maxDur="50"/>
        <phase duration="3"  state="rrryggrrryyyy"/>
        <phase duration="6"  state="rrrGGGrrrrrrr" minDur="5" maxDur="50"/>
        <phase duration="3"  state="rrryyyrrrrrrr"/>
        <phase duration="24" state="GGGrrrrrrrrrr" minDur="5" maxDur="50"/>
        <phase duration="3"  state="yyyrrrrrrrrrr"/>
        <phase duration="24" state="rrrrrrGGgGrrr" minDur="5" maxDur="50"/>
        <phase duration="3"  state="rrrrrryyyyrrr"/>
    </tlLogic>
    <tlLogic id="GS_117406" type="actuated" programID="0" offset="0">
        <phase duration="41" state="GGGrr" minDur="7" maxDur="50"/>
        <phase duration="4"  state="yyyrr"/>
        <phase duration="41" state="GrrGg" minDur="5" maxDur="50"/>
        <phase duration="4"  state="yrryy"/>
    </tlLogic>
    <tlLogic id="GS_1559349747" type="actuated" programID="0" offset="0">
        <phase duration="41" state="Grr" minDur="5" maxDur="50"/>
        <phase duration="4"  state="yrr"/>
        <phase duration="41" state="rGG" minDur="7" maxDur="50"/>
        <phase duration="4"  state="ryy"/>
    </tlLogic>
    <tlLogic id="GS_5359985127" type="actuated" programID="0" offset="0">
        <phase duration="42" state="Gr" minDur="5" maxDur="50"/>
        <phase duration="3"  state="yr"/>
        <phase duration="42" state="rG" minDur="5" maxDur="50"/>
        <phase duration="3"  state="ry"/>
    </tlLogic>
    <tlLogic id="GS_71138683" type="actuated" programID="0" offset="0">
        <phase duration="27" state="rrrGGgGrr" minDur="5" maxDur="50"/>
        <phase duration="3"  state="rrryyyyrr"/>
        <phase duration="27" state="GGgGrrrrr" minDur="5" maxDur="50"/>
        <phase duration="3"  state="yyyyrrrrr"/>
        <phase duration="27" state="GrrrrrGGg" minDur="5" maxDur="50"/>
        <phase duration="3"  state="yrrrrryyy"/>
    </tlLogic>
    <tlLogic id="GS_cluster_106078399_106078406_60479064_60479078" type="actuated" programID="0" offset="0">
        <phase duration="31" state="rrrrrGGGGggrrrrrGGGgg" minDur="7" maxDur="50"/>
        <phase duration="4"  state="rrrrryyyyggrrrrryyygg"/>
        <phase duration="6"  state="rrrrrrrrrGGrrrrrrrrGG" minDur="7" maxDur="50"/>
        <phase duration="4"  state="rrrrrrrrryyrrrrrrrryy"/>
        <phase duration="31" state="GGGggrrrrrrGGGggrrrrr" minDur="5" maxDur="50"/>
        <phase duration="4"  state="yyyggrrrrrryyyggrrrrr"/>
        <phase duration="6"  state="rrrGGrrrrrrrrrGGrrrrr" minDur="5" maxDur="50"/>
        <phase duration="4"  state="rrryyrrrrrrrrryyrrrrr"/>
    </tlLogic>
    <tlLogic id="GS_cluster_1139543862_5840807894_5840807895_5840807896" type="actuated" programID="0" offset="0">
        <phase duration="35" state="GGrrrrrrrrGGGGg" minDur="8" maxDur="50"/>
        <phase duration="5"  state="yyrrrrrrrryyyyy"/>
        <phase duration="6"  state="GGGGGrrrrrrrrrr" minDur="8" maxDur="50"/>
        <phase duration="5"  state="yyyyyrrrrrrrrrr"/>
        <phase duration="34" state="rrrrrGGGGgGrrrr" minDur="5" maxDur="50"/>
        <phase duration="5"  state="rrrrryyyyyyrrrr"/>
    </tlLogic>
    <tlLogic id="GS_cluster_1185223444_1221419486_4927625493" type="actuated" programID="0" offset="0">
        <phase duration="27" state="GrrrrrGGg" minDur="5" maxDur="50"/>
        <phase duration="3"  state="yrrrrryyy"/>
        <phase duration="27" state="rrrGGgGrr" minDur="5" maxDur="50"/>
        <phase duration="3"  state="rrryyyyrr"/>
        <phase duration="27" state="GGgGrrrrr" minDur="5" maxDur="50"/>
        <phase duration="3"  state="yyyyrrrrr"/>
    </tlLogic>
    <tlLogic id="GS_cluster_119053034_255961629_5833841592_5833841593_5833841595_5833841597_98098646" type="actuated" programID="0" offset="0">
        <phase duration="33" state="rrrrGGGggrrrGGGgg" minDur="5" maxDur="50"/>
        <phase duration="3"  state="rrrryyyggrrryyygg"/>
        <phase duration="6"  state="rrrrrrrGGrrrrrrGG" minDur="5" maxDur="50"/>
        <phase duration="3"  state="rrrrrrryyrrrrrryy"/>
        <phase duration="33" state="GGggrrrrrGGgrrrrr" minDur="5" maxDur="50"/>
        <phase duration="3"  state="yyggrrrrryygrrrrr"/>
        <phase duration="6"  state="rrGGrrrrrrrGrrrrr" minDur="5" maxDur="50"/>
        <phase duration="3"  state="rryyrrrrrrryrrrrr"/>
    </tlLogic>
    <tlLogic id="GS_cluster_119320515_119320523_2187757765_2187757766" type="actuated" programID="0" offset="0">
        <phase duration="31" state="rrrGGGgrrrrGGGg" minDur="7" maxDur="50"/>
        <phase duration="4"  state="rrryyygrrrryyyg"/>
        <phase duration="6"  state="rrrrrrGrrrrrrrG" minDur="7" maxDur="50"/>
        <phase duration="4"  state="rrrrrryrrrrrrry"/>
        <phase duration="31" state="GGgrrrrGGGgrrrr" minDur="5" maxDur="50"/>
        <phase duration="4"  state="yygrrrryyygrrrr"/>
        <phase duration="6"  state="rrGrrrrrrrGrrrr" minDur="5" maxDur="50"/>
        <phase duration="4"  state="rryrrrrrrryrrrr"/>
    </tlLogic>
    <tlLogic id="GS_cluster_1227789659_269032315" type="actuated" programID="0" offset="0">
        <phase duration="31" state="GGGggrrrrGGGggrrrr" minDur="7" maxDur="50"/>
        <phase duration="4"  state="yyyggrrrryyyggrrrr"/>
        <phase duration="6"  state="rrrGGrrrrrrrGGrrrr" minDur="7" maxDur="50"/>
        <phase duration="4"  state="rrryyrrrrrrryyrrrr"/>
        <phase duration="31" state="rrrrrGGggrrrrrGGgg" minDur="5" maxDur="50"/>
        <phase duration="4"  state="rrrrryyggrrrrryygg"/>
        <phase duration="6"  state="rrrrrrrGGrrrrrrrGG" minDur="5" maxDur="50"/>
        <phase duration="4"  state="rrrrrrryyrrrrrrryy"/>
    </tlLogic>
    <tlLogic id="GS_cluster_1555894469_1555894473_63564753_63564758" type="actuated" programID="0" offset="0">
        <phase duration="36" state="rrrrGGGgrrrrGGGg" minDur="7" maxDur="50"/>
        <phase duration="4"  state="rrrryyygrrrryyyg"/>
        <phase duration="6"  state="rrrrrrrGrrrrrrrG" minDur="7" maxDur="50"/>
        <phase duration="4"  state="rrrrrrryrrrrrrry"/>
        <phase duration="36" state="GGGgrrrrGGGgrrrr" minDur="7" maxDur="50"/>
        <phase duration="4"  state="yyyyrrrryyyyrrrr"/>
    </tlLogic>
    <tlLogic id="GS_cluster_247454520_247454609_4929086369_4929086371" type="actuated" programID="0" offset="0">
        <phase duration="35" state="GGgrrGGG" minDur="8" maxDur="50"/>
        <phase duration="5"  state="yygrryyy"/>
        <phase duration="6"  state="GGGrrrrr" minDur="8" maxDur="50"/>
        <phase duration="5"  state="yyyrrrrr"/>
        <phase duration="34" state="rrrGGGrr" minDur="5" maxDur="50"/>
        <phase duration="5"  state="rrryyyrr"/>
    </tlLogic>
    <tlLogic id="GS_cluster_2483671341_252716522" type="actuated" programID="0" offset="0">
        <phase duration="27" state="GggrrrGGgrrr" minDur="5" maxDur="50"/>
        <phase duration="3"  state="yyyrrryyyrrr"/>
        <phase duration="27" state="rrrGGgGrrrrr" minDur="5" maxDur="50"/>
        <phase duration="3"  state="rrryyyyrrrrr"/>
        <phase duration="27" state="rrrrrrrrrGGG" minDur="5" maxDur="50"/>
        <phase duration="3"  state="rrrrrrrrryyy"/>
    </tlLogic>
    <tlLogic id="GS_cluster_252716528_75569294" type="actuated" programID="0" offset="0">
        <phase duration="38" state="GggrrrGGg" minDur="5" maxDur="50"/>
        <phase duration="3"  state="yggrrryyy"/>
        <phase duration="6"  state="GGGrrrrrr" minDur="5" maxDur="50"/>
        <phase duration="3"  state="yyyrrrrrr"/>
        <phase duration="37" state="rrrGGgGrr" minDur="5" maxDur="50"/>
        <phase duration="3"  state="rrryyyyrr"/>
    </tlLogic>
    <tlLogic id="GS_cluster_255326240_2863103312" type="actuated" programID="0" offset="0">
        <phase duration="42" state="GGgGggrrr" minDur="5" maxDur="50"/>
        <phase duration="3"  state="yyyyyyrrr"/>
        <phase duration="42" state="GrrrrrGGg" minDur="5" maxDur="50"/>
        <phase duration="3"  state="yrrrrryyy"/>
    </tlLogic>
    <tlLogic id="GS_cluster_255899660_255899800" type="actuated" programID="0" offset="0">
        <phase duration="25" state="GGGGGGGrrr" minDur="7" maxDur="50"/>
        <phase duration="5"  state="yyyyyyyrrr"/>
        <phase duration="25" state="rrrrGGGGGr" minDur="10" maxDur="50"/>
        <phase duration="5"  state="rrrryyyyyr"/>
        <phase duration="25" state="GrrrrrrrGG" minDur="5" maxDur="50"/>
        <phase duration="5"  state="yrrrrrrryy"/>
    </tlLogic>
    <tlLogic id="GS_cluster_255901977_255902537_5359952800_5359952801" type="actuated" programID="0" offset="0">
        <phase duration="27" state="rGGgrrGGg" minDur="5" maxDur="50"/>
        <phase duration="3"  state="ryyyrryyy"/>
        <phase duration="27" state="GrrgGrrrr" minDur="5" maxDur="50"/>
        <phase duration="3"  state="yrryyrrrr"/>
        <phase duration="27" state="rrrrGGrrr" minDur="5" maxDur="50"/>
        <phase duration="3"  state="rrrryyrrr"/>
    </tlLogic>
    <tlLogic id="GS_cluster_258228294_262343385_262343386_75502407" type="actuated" programID="0" offset="0">
        <phase duration="35" state="GGGgrrrGGGgrrr" minDur="8" maxDur="50"/>
        <phase duration="5"  state="yyyyrrryyyyrrr"/>
        <phase duration="34" state="rrrrGGgrrrrGGg" minDur="7" maxDur="50"/>
        <phase duration="5"  state="rrrryygrrrryyg"/>
        <phase duration="6"  state="rrrrrrGrrrrrrG" minDur="7" maxDur="50"/>
        <phase duration="5"  state="rrrrrryrrrrrry"/>
    </tlLogic>
    <tlLogic id="GS_cluster_262336463_262336464_5840808165_5840808166" type="actuated" programID="0" offset="0">
        <phase duration="35" state="GGggrrrGGGG" minDur="8" maxDur="50"/>
        <phase duration="5"  state="yyggrrryyyy"/>
        <phase duration="6"  state="GGGGrrrrrrr" minDur="8" maxDur="50"/>
        <phase duration="5"  state="yyyyrrrrrrr"/>
        <phase duration="34" state="rrrrGGGGrrr" minDur="5" maxDur="50"/>
        <phase duration="5"  state="rrrryyyyrrr"/>
    </tlLogic>
    <tlLogic id="GS_cluster_268839853_268839854" type="actuated" programID="0" offset="0">
        <phase duration="41" state="GGggrrrGGg" minDur="7" maxDur="50"/>
        <phase duration="4"  state="yyyyrrryyy"/>
        <phase duration="41" state="rrrrGGgGrr" minDur="5" maxDur="50"/>
        <phase duration="4"  state="rrrryyyyrr"/>
    </tlLogic>
    <tlLogic id="GS_cluster_293401363_293401364_5821793431" type="actuated" programID="0" offset="0">
        <phase duration="40" state="GGgrrGGG" minDur="8" maxDur="50"/>
        <phase duration="5"  state="yyyrryyy"/>
        <phase duration="40" state="rrrGGGrr" minDur="5" maxDur="50"/>
        <phase duration="5"  state="rrryyyrr"/>
    </tlLogic>
    <tlLogic id="GS_cluster_4900504856_75502036_876198126_876198131" type="actuated" programID="0" offset="0">
        <phase duration="40" state="GGGgGGgrrr" minDur="8" maxDur="50"/>
        <phase duration="5"  state="yyyyyyyrrr"/>
        <phase duration="40" state="GrrrrrrGGg" minDur="7" maxDur="50"/>
        <phase duration="5"  state="yrrrrrryyy"/>
    </tlLogic>
    <tlLogic id="cluster_106034532_3921684121_4900508587_4900508589_7797208550" type="actuated" programID="0" offset="0">
        <phase duration="42" state="GgrrrrGGGg" minDur="5" maxDur="50"/>
        <phase duration="3"  state="yyrrrryyyy"/>
        <phase duration="42" state="rrGGGgGGrr" minDur="5" maxDur="50"/>
        <phase duration="3"  state="rryyyyyyrr"/>
    </tlLogic>
    <tlLogic id="cluster_106078418_420230697_71153895" type="actuated" programID="0" offset="0">
        <phase duration="38" state="GGGgrrrGGGg" minDur="5" maxDur="50"/>
        <phase duration="3"  state="yyygrrryyyg"/>
        <phase duration="6"  state="rrrGrrrrrrG" minDur="5" maxDur="50"/>
        <phase duration="3"  state="rrryrrrrrry"/>
        <phase duration="37" state="rrrrGGGGrrr" minDur="5" maxDur="50"/>
        <phase duration="3"  state="rrrryyyyrrr"/>
    </tlLogic>
    <tlLogic id="cluster_106078434_705254806" type="actuated" programID="0" offset="0">
        <phase duration="42" state="GGggrrrrGGggrrrr" minDur="5" maxDur="50"/>
        <phase duration="3"  state="yyyyrrrryyyyrrrr"/>
        <phase duration="42" state="rrrrGGggrrrrGGgg" minDur="5" maxDur="50"/>
        <phase duration="3"  state="rrrryyyyrrrryyyy"/>
    </tlLogic>
    <tlLogic id="cluster_106078601_367109630_4927519524_4927519529_4927519535_60265101" type="static" programID="0" offset="0">
        <phase duration="20" state="rrrGGGGrrrrGGGGr"/>
        <phase duration="5"  state="rrryyyyrrrryyyyr"/>
        <phase duration="22" state="GGgrrrrrGGgrrrrr"/>
        <phase duration="5"  state="yygrrrrryygrrrrr"/>
        <phase duration="6"  state="rrGrrrrrrrGrrrrr"/>
        <phase duration="5"  state="rryrrrrrrryrrrrr"/>
        <phase duration="22" state="GrrrrrrGGrrrrrrG"/>
        <phase duration="5"  state="yrrrrrryyrrrrrry"/>
    </tlLogic>
    <tlLogic id="cluster_106224099_106224105_4993785743_4993785780_4993785784" type="static" programID="0" offset="0">
        <phase duration="18" state="rrrrGGGrrrrGGGg"/>
        <phase duration="4"  state="rrrryyyrrrryyyg"/>
        <phase duration="6"  state="rrrrrrrrrrrGGGG"/>
        <phase duration="4"  state="rrrrrrrrrrryyyy"/>
        <phase duration="20" state="GGGgrrrrGGgrrrr"/>