<?xml version="1.0" encoding="UTF-8"?>

<!-- generated on 11/07/20 15:43:57 by Eclipse SUMO netconvert Version v1_7_0+0879-aea7511197
<configuration xmlns:xsi="http://www.w3.org/2001/XMLSchema-instance" xsi:noNamespaceSchemaLocation="http://sumo.dlr.de/xsd/netconvertConfiguration.xsd">

    <input>
        <sumo-net-file value="osm.net.xml"/>
    </input>

    <output>
        <plain-output-prefix value="F:\polyhack\trafficmap\aarhus"/>
        <output.street-names value="true"/>
    </output>

    <processing>
        <geometry.min-radius.fix.railways value="false"/>
        <geometry.max-grade.fix value="false"/>
        <offset.disable-normalization value="true"/>
        <lefthand value="false"/>
    </processing>

    <junctions>
        <no-turnarounds value="true"/>
        <junctions.corner-detail value="5"/>
        <junctions.limit-turn-speed value="5.5"/>
        <rectangular-lane-cut value="false"/>
    </junctions>

    <pedestrian>
        <walkingareas value="false"/>
    </pedestrian>

    <report>
        <aggregate-warnings value="5"/>
    </report>

</configuration>
-->

<nodes version="1.6" xmlns:xsi="http://www.w3.org/2001/XMLSchema-instance" xsi:noNamespaceSchemaLocation="http://sumo.dlr.de/xsd/nodes_file.xsd">
    <location netOffset="-568910.39,-6220567.31" convBoundary="1300.94,292.62,7487.71,6927.65" origBoundary="10.088943,55.865041,11.299685,56.203170" projParameter="+proj=utm +zone=32 +ellps=WGS84 +datum=WGS84 +units=m +no_defs"/>

    <node id="100176512" x="5472.55" y="3623.20" type="priority"/>
    <node id="100177268" x="5661.23" y="3444.65" type="priority"/>
    <node id="100178933" x="5944.04" y="3353.69" type="priority"/>
    <node id="100179721" x="6187.99" y="4121.51" type="priority"/>
    <node id="100182761" x="5927.96" y="2685.48" type="priority"/>
    <node id="100184003" x="5753.00" y="3343.84" type="priority"/>
    <node id="1018588587" x="2772.49" y="4488.50" type="priority"/>
    <node id="1018753763" x="3624.32" y="4034.61" type="priority"/>
    <node id="1018753815" x="2535.62" y="4008.75" type="priority"/>
    <node id="1018792676" x="4028.30" y="4234.63" type="priority"/>
    <node id="1018944570" x="2780.63" y="3578.16" type="priority"/>
    <node id="1018944599" x="2281.31" y="3768.97" type="priority"/>
    <node id="1018944754" x="2500.38" y="3465.12" type="priority"/>
    <node id="1018944763" x="3043.25" y="3682.40" type="priority"/>
    <node id="1019106141" x="3748.55" y="4028.65" type="priority"/>
    <node id="1021388597" x="6490.30" y="2153.97" type="priority"/>
    <node id="1021388598" x="6394.19" y="2218.82" type="priority"/>
    <node id="1022002966" x="5139.36" y="5854.93" type="priority"/>
    <node id="1022003018" x="5189.44" y="5845.79" type="priority">
        <param key="buffer_stop" value="true"/>
    </node>
    <node id="1023045355" x="4791.39" y="1579.36" type="priority"/>
    <node id="1026646252" x="2767.54" y="4925.96" type="priority"/>
    <node id="102675508" x="6098.42" y="3855.20" type="priority"/>
    <node id="1027921858" x="5960.21" y="2939.58" type="priority"/>
    <node id="1036716424" x="5881.19" y="3205.60" type="traffic_light" tl="1036716424"/>
    <node id="1038224753" x="4168.19" y="3054.00" type="priority"/>
    <node id="1038275252" x="6338.79" y="3163.46" type="priority"/>
    <node id="1043072382" x="4476.26" y="855.17" type="priority"/>
    <node id="1046025215" x="3058.74" y="5183.02" type="priority"/>
    <node id="1049875303" x="4601.40" y="2401.32" type="priority"/>
    <node id="105992145" x="5879.52" y="2351.03" type="priority"/>
    <node id="105992152" x="5882.28" y="2479.14" type="priority"/>
    <node id="105992157" x="5868.10" y="2458.85" type="priority"/>
    <node id="105992170" x="5915.59" y="2356.19" type="priority"/>
    <node id="105992178" x="5793.44" y="2336.61" type="priority"/>
    <node id="106034511" x="5594.52" y="3433.80" type="traffic_light" tl="106034511"/>
    <node id="106078462" x="3340.43" y="4105.27" type="priority"/>
    <node id="106078473" x="3349.65" y="4353.37" type="right_before_left"/>
    <node id="106078489" x="3944.68" y="4358.66" type="priority"/>
    <node id="106078516" x="4075.44" y="4302.61" type="traffic_light" tl="106078516"/>
    <node id="106078535" x="4024.58" y="4740.29" type="priority"/>
    <node id="106078538" x="4570.03" y="4603.29" type="priority"/>
    <node id="106078552" x="4138.32" y="4740.83" type="priority"/>
    <node id="106078580" x="4630.87" y="5041.36" type="priority"/>
    <node id="106078594" x="5555.53" y="5296.72" type="priority"/>
    <node id="106078610" x="5108.18" y="4744.52" type="priority"/>
    <node id="106078618" x="5491.14" y="5018.09" type="priority"/>
    <node id="106223982" x="5643.87" y="4003.68" type="priority"/>
    <node id="106223997" x="5466.96" y="3942.96" type="priority"/>
    <node id="106224010" x="5322.46" y="3699.87" type="traffic_light" tl="106224010"/>
    <node id="106224016" x="5291.24" y="3787.53" type="priority"/>
    <node id="106224022" x="5430.89" y="3862.38" type="priority"/>
    <node id="106224029" x="5561.60" y="4115.76" type="priority"/>
    <node id="106224032" x="5634.36" y="4169.26" type="priority"/>
    <node id="106224040" x="5689.99" y="4208.78" type="priority"/>
    <node id="106224044" x="5773.13" y="4271.23" type="right_before_left"/>
    <node id="106224051" x="5633.34" y="4511.69" type="priority"/>
    <node id="106224067" x="5802.84" y="4503.21" type="priority"/>
    <node id="106224076" x="5877.68" y="4461.13" type="priority"/>
    <node id="106224119" x="6422.20" y="4057.77" type="priority"/>
    <node id="106224348" x="6129.85" y="3066.11" type="priority"/>
    <node id="106224418" x="5338.21" y="2878.80" type="priority"/>
    <node id="106224483" x="5238.76" y="3383.85" type="traffic_light" tl="106224483"/>
    <node id="106224494" x="5393.49" y="3267.47" type="priority"/>
    <node id="106351706" x="5560.62" y="3644.30" type="traffic_light" tl="106351706"/>
    <node id="106351710" x="5508.45" y="3762.14" type="traffic_light" tl="106351710"/>
    <node id="106351719" x="5783.17" y="3924.46" type="priority"/>
    <node id="106351727" x="5724.76" y="3890.63" type="traffic_light" tl="106351727"/>
    <node id="106351728" x="7055.37" y="4069.33" type="priority"/>
    <node id="106351732" x="7051.52" y="4095.38" type="priority"/>
    <node id="1094806303" x="4416.44" y="5820.03" type="priority"/>
    <node id="1123543426" x="3314.82" y="3809.58" type="priority"/>
    <node id="1168305060" x="2554.59" y="4058.49" type="priority"/>
    <node id="1168305114" x="2404.56" y="3797.31" type="priority"/>
    <node id="117366" x="6153.02" y="3140.74" type="traffic_light" tl="GS_117366"/>
    <node id="117406" x="5639.52" y="1840.21" type="traffic_light" tl="GS_117406"/>
    <node id="118362040" x="6293.53" y="3006.59" type="priority"/>
    <node id="118362058" x="6142.24" y="2684.64" type="priority"/>
    <node id="118362065" x="6030.60" y="2690.56" type="priority"/>
    <node id="119053019" x="6543.23" y="5633.47" type="priority"/>
    <node id="1200806282" x="5251.63" y="4624.19" type="priority"/>
    <node id="1200806296" x="5308.82" y="4566.70" type="priority"/>
    <node id="1200806564" x="5370.27" y="4503.18" type="priority"/>
    <node id="1203786988" x="5148.55" y="3737.50" type="priority"/>
    <node id="1203787009" x="5163.33" y="3645.76" type="priority"/>
    <node id="1227789674" x="6306.86" y="5062.51" type="priority"/>
    <node id="1227789675" x="6287.70" y="5346.02" type="priority"/>
    <node id="1227789678" x="5933.31" y="5347.42" type="priority"/>
    <node id="1227789717" x="6181.49" y="5015.24" type="priority"/>
    <node id="1227789720" x="6338.51" y="5474.64" type="priority"/>
    <node id="1227789728" x="6082.93" y="5153.41" type="priority"/>
    <node id="1227795929" x="6267.68" y="4588.38" type="priority"/>
    <node id="1227838662" x="5619.73" y="4528.41" type="priority"/>
    <node id="1231090996" x="6775.75" y="2577.83" type="priority"/>
    <node id="1231091006" x="6508.44" y="2352.06" type="priority"/>
    <node id="1231091020" x="7274.81" y="3746.35" type="priority"/>
    <node id="1231091022" x="7039.92" y="3059.43" type="priority"/>
    <node id="1231091028" x="6979.77" y="3078.44" type="priority"/>
    <node id="1231091029" x="6964.53" y="2507.82" type="priority"/>
    <node id="1231091036" x="6914.62" y="2795.57" type="priority"/>
    <node id="1231091038" x="7132.56" y="2917.35" type="priority"/>
    <node id="1231091040" x="7231.96" y="3466.77" type="priority"/>
    <node id="1231091041" x="6704.99" y="2624.90" type="priority"/>
    <node id="1231091045" x="7083.76" y="2688.86" type="priority"/>
    <node id="1231091050" x="6957.32" y="2885.50" type="priority"/>
    <node id="1231091052" x="7195.42" y="3573.71" type="priority"/>
    <node id="1234429127" x="2216.78" y="3199.99" type="priority"/>
    <node id="1234429128" x="2243.08" y="3218.40" type="priority"/>
    <node id="1236485534" x="6001.46" y="3456.14" type="priority"/>
    <node id="1236506407" x="5895.43" y="3371.28" type="priority"/>
    <node id="1236548416" x="5804.70" y="3424.94" type="priority"/>
    <node id="1237100941" x="4917.41" y="4940.13" type="traffic_light" tl="1237100941"/>
    <node id="1237291196" x="6138.29" y="2203.85" type="priority"/>
    <node id="1238334984" x="3130.00" y="3742.10" type="priority"/>
    <node id="1238959917" x="6071.95" y="3307.36" type="priority"/>
    <node id="124145602" x="6090.38" y="4193.90" type="priority"/>
    <node id="124145604" x="5876.84" y="4357.88" type="priority"/>
    <node id="124150996" x="5644.28" y="2240.97" type="priority"/>
    <node id="124153114" x="5996.41" y="2343.66" type="priority"/>
    <node id="124153772" x="5892.42" y="1976.10" type="priority"/>
    <node id="124153774" x="5910.79" y="2069.63" type="priority"/>
    <node id="124153791" x="5919.49" y="2277.82" type="priority"/>
    <node id="1246667582" x="5370.82" y="2528.55" type="priority"/>
    <node id="1248808101" x="6048.71" y="5367.54" type="priority"/>
    <node id="1250612276" x="6279.57" y="4778.96" type="priority"/>
    <node id="1250612301" x="6787.46" y="4372.26" type="priority"/>
    <node id="1251072797" x="3813.45" y="4210.69" type="priority"/>
    <node id="1251072799" x="3330.01" y="4356.17" type="priority"/>
    <node id="1251072801" x="3367.69" y="4351.08" type="priority"/>
    <node id="1251072802" x="2610.66" y="3512.61" type="priority"/>
    <node id="1251072803" x="3350.74" y="4370.70" type="priority"/>
    <node id="1251122812" x="2727.15" y="3796.57" type="priority"/>
    <node id="1251122814" x="2933.25" y="3636.40" type="priority"/>
    <node id="1251122821" x="2671.64" y="3775.02" type="priority"/>
    <node id="1251122823" x="3229.74" y="3744.69" type="priority"/>
    <node id="1251122827" x="3321.63" y="3777.99" type="priority"/>
    <node id="1251122830" x="2385.48" y="3649.79" type="priority"/>
    <node id="1251122832" x="2694.01" y="3783.76" type="priority"/>
    <node id="1251122834" x="3140.93" y="3702.42" type="priority"/>
    <node id="1251657234" x="6096.16" y="1762.31" type="priority"/>
    <node id="1253052702" x="3998.56" y="4314.20" type="priority"/>
    <node id="1260521053" x="6275.04" y="4244.08" type="priority"/>
    <node id="1264227786" x="5862.07" y="3766.75" type="priority"/>
    <node id="1270634744" x="5464.48" y="2959.07" type="priority"/>
    <node id="1270634745" x="5493.81" y="2939.85" type="priority"/>
    <node id="1331104994" x="2627.62" y="2469.66" type="priority"/>
    <node id="1396402783" x="5806.47" y="5410.55" type="priority"/>
    <node id="1396434807" x="5529.13" y="6198.46" type="priority"/>
    <node id="1396522475" x="6513.75" y="6297.52" type="priority"/>
    <node id="1396533917" x="5517.26" y="5216.09" type="priority"/>
    <node id="1398686384" x="5525.95" y="5943.36" type="priority"/>
    <node id="1404807171" x="6264.79" y="3301.32" type="priority"/>
    <node id="1404807194" x="6263.91" y="3309.94" type="priority"/>
    <node id="1404807221" x="6276.61" y="3310.46" type="priority"/>
    <node id="1404807264" x="6296.49" y="3327.67" type="priority"/>
    <node id="1404807556" x="6337.28" y="3597.85" type="priority"/>
    <node id="1404807680" x="6469.16" y="4069.27" type="priority"/>
    <node id="1415929333" x="6357.51" y="3371.37" type="priority"/>
    <node id="1428123590" x="5167.94" y="1369.96" type="priority"/>
    <node id="1431915134" x="6632.53" y="1863.45" type="priority"/>
    <node id="1431915169" x="6693.51" y="1955.82" type="priority"/>
    <node id="1431915178" x="6808.31" y="2129.54" type="priority"/>
    <node id="1431915181" x="6709.38" y="2195.31" type="priority"/>
    <node id="1431915186" x="6898.15" y="2265.94" type="priority"/>
    <node id="1457050340" x="5855.60" y="5130.03" type="priority"/>
    <node id="1457050562" x="5835.94" y="5120.58" type="priority"/>
    <node id="1473098118" x="5598.28" y="2159.69" type="priority"/>
    <node id="1473098119" x="5605.67" y="2168.23" type="priority"/>
    <node id="1501836691" x="2935.54" y="1266.94" type="priority"/>
    <node id="1501836700" x="3184.81" y="1320.69" type="priority"/>
    <node id="1509993994" x="2646.87" y="1175.64" type="priority"/>
    <node id="1509993997" x="2809.05" y="1227.91" type="priority"/>
    <node id="1510047214" x="3192.24" y="806.86" type="priority"/>
    <node id="1510047290" x="3321.14" y="966.48" type="priority"/>
    <node id="1510047332" x="3117.52" y="1114.25" type="priority"/>
    <node id="1510047338" x="2956.47" y="1176.64" type="priority"/>
    <node id="1510047349" x="3228.20" y="1131.44" type="priority"/>
    <node id="1510047354" x="3032.42" y="1132.77" type="priority"/>
    <node id="1510047394" x="3112.76" y="1161.47" type="priority"/>
    <node id="1510047417" x="3214.27" y="1176.12" type="priority"/>
    <node id="1510047494" x="3200.25" y="1225.08" type="priority"/>
    <node id="1510047540" x="2901.04" y="1358.35" type="priority"/>
    <node id="1510047609" x="3798.10" y="1631.57" type="priority"/>
    <node id="153531786#0-AddedOffRampNode" x="5631.22" y="6572.79" type="priority"/>
    <node id="1554173215" x="5740.12" y="4328.18" type="priority"/>
    <node id="1554173219" x="5690.46" y="4414.84" type="priority"/>
    <node id="1555894356" x="4332.28" y="1230.10" type="priority"/>
    <node id="1555894359" x="4410.09" y="1269.62" type="priority"/>
    <node id="1555894362" x="4475.88" y="1300.52" type="priority"/>
    <node id="1555894363" x="4541.41" y="1331.41" type="priority"/>
    <node id="1555894364" x="4612.85" y="1366.75" type="priority"/>
    <node id="1555894368" x="4104.58" y="1378.54" type="priority"/>
    <node id="1555894378" x="4686.62" y="1406.56" type="priority"/>
    <node id="1555894391" x="4288.43" y="1432.54" type="priority"/>
    <node id="1555894392" x="4367.62" y="1432.96" type="priority"/>
    <node id="1555894394" x="4103.90" y="1432.04" type="priority"/>
    <node id="1555894406" x="4421.01" y="1486.17" type="priority"/>
    <node id="1555894415" x="4100.91" y="1516.34" type="priority"/>
    <node id="1555894417" x="4692.30" y="1536.74" type="priority"/>
    <node id="1555894419" x="4476.59" y="1531.67" type="priority"/>
    <node id="1555894429" x="4388.37" y="1525.00" type="priority"/>
    <node id="1555894432" x="4280.86" y="1528.17" type="priority"/>
    <node id="1555894445" x="4526.22" y="1573.81" type="priority"/>
    <node id="1555894447" x="4194.10" y="1572.48" type="priority"/>
    <node id="1555894450" x="4532.02" y="1580.11" type="priority"/>
    <node id="1555894458" x="4095.53" y="1641.25" type="priority"/>
    <node id="1555894491" x="4452.29" y="1726.40" type="priority"/>
    <node id="1555894510" x="4591.74" y="1759.76" type="priority"/>
    <node id="1555894520" x="4366.99" y="1772.29" type="priority"/>
    <node id="1555894523" x="4574.81" y="1777.40" type="priority"/>
    <node id="1555894530" x="4536.32" y="1813.34" type="priority"/>
    <node id="1555894544" x="4369.81" y="1851.39" type="priority"/>
    <node id="1555894555" x="4239.01" y="1866.14" type="priority"/>
    <node id="1555894557" x="4494.35" y="1881.78" type="priority"/>
    <node id="1556123938" x="4144.89" y="555.45" type="priority"/>
    <node id="1556123972" x="4135.39" y="598.68" type="priority"/>
    <node id="1556123999" x="4923.97" y="627.94" type="priority"/>
    <node id="1556124009" x="4903.53" y="639.58" type="priority"/>
    <node id="1556124022" x="4057.35" y="641.08" type="traffic_light" tl="1556124022"/>
    <node id="1556124033" x="5088.89" y="665.73" type="priority"/>
    <node id="1556124036" x="4124.59" y="653.14" type="priority"/>
    <node id="1556124048" x="4546.17" y="665.01" type="priority"/>
    <node id="1556124049" x="4170.04" y="663.71" type="priority"/>
    <node id="1556124071" x="4080.85" y="739.72" type="priority"/>
    <node id="1556124080" x="4510.04" y="764.65" type="traffic_light" tl="1556124080"/>
    <node id="1556124082" x="4189.39" y="770.36" type="priority"/>
    <node id="1556124089" x="4632.52" y="801.77" type="priority"/>
    <node id="1556124115" x="4096.84" y="843.59" type="priority"/>
    <node id="1556124119" x="4890.26" y="879.59" type="priority"/>
    <node id="1556124123" x="5059.49" y="882.26" type="priority"/>
    <node id="1556124125" x="4220.04" y="880.26" type="priority"/>
    <node id="1556124126" x="4613.94" y="894.84" type="priority"/>
    <node id="1556124131" x="5034.24" y="909.46" type="traffic_light" tl="1556124131"/>
    <node id="1556124156" x="4101.60" y="909.04" type="priority"/>
    <node id="1556124163" x="4616.04" y="926.50" type="priority"/>
    <node id="1556124176" x="4797.42" y="956.41" type="priority"/>
    <node id="1556124181" x="4440.59" y="953.55" type="priority"/>
    <node id="1556124187" x="5030.17" y="972.62" type="priority"/>
    <node id="1556124199" x="4886.43" y="979.19" type="priority"/>
    <node id="1556124200" x="4247.39" y="967.89" type="priority"/>
    <node id="1556124204" x="4984.97" y="990.33" type="priority"/>
    <node id="1556124218" x="4532.86" y="985.00" type="priority"/>
    <node id="1556124240" x="4777.22" y="1012.96" type="priority"/>
    <node id="1556124244" x="4619.49" y="1008.62" type="priority"/>
    <node id="1556124254" x="4623.94" y="1010.25" type="priority"/>
    <node id="1556124266" x="4613.27" y="1011.89" type="priority"/>
    <node id="1556124289" x="4614.13" y="1020.90" type="priority"/>
    <node id="1556124294" x="4623.23" y="1021.98" type="priority"/>
    <node id="1556124302" x="4266.98" y="1027.11" type="priority"/>
    <node id="1556124329" x="4862.12" y="1045.28" type="priority"/>
    <node id="1556124336" x="4404.37" y="1048.05" type="priority"/>
    <node id="1556124372" x="4221.58" y="1074.23" type="priority"/>
    <node id="1556124380" x="4980.18" y="1099.58" type="priority"/>
    <node id="1556124383" x="4295.60" y="1084.98" type="priority"/>
    <node id="1556124411" x="4241.46" y="1110.69" type="priority"/>
    <node id="1556124440" x="4672.78" y="1133.93" type="priority"/>
    <node id="1556124444" x="4971.91" y="1147.91" type="priority"/>
    <node id="1556124446" x="5017.62" y="1133.24" type="priority"/>
    <node id="1556124457" x="4592.09" y="1138.50" type="priority"/>
    <node id="1556124460" x="4489.65" y="1144.38" type="priority"/>
    <node id="1556124462" x="5013.15" y="1163.51" type="priority"/>
    <node id="1556124477" x="4392.53" y="1172.07" type="priority"/>
    <node id="1556124483" x="4164.70" y="1175.15" type="priority"/>
    <node id="1556124492" x="4351.97" y="1189.05" type="priority"/>
    <node id="1556124506" x="4870.86" y="1221.28" type="priority"/>
    <node id="1556124522" x="4683.60" y="1263.46" type="priority"/>
    <node id="1556124526" x="4604.07" y="1273.74" type="priority"/>
    <node id="1556124531" x="4957.68" y="1281.36" type="priority"/>
    <node id="1556124557" x="5033.56" y="1321.51" type="traffic_light" tl="1556124557"/>
    <node id="1556124566" x="4736.56" y="1326.44" type="priority"/>
    <node id="1556124573" x="5035.38" y="1353.12" type="priority"/>
    <node id="1556124591" x="4946.03" y="1387.20" type="priority"/>
    <node id="1556124622" x="5045.50" y="1512.75" type="priority"/>
    <node id="1556258465" x="3893.16" y="2950.91" type="priority"/>
    <node id="1556258500" x="2817.25" y="3297.43" type="priority"/>
    <node id="1556258550" x="2427.30" y="3389.47" type="priority"/>
    <node id="1556258557" x="2512.28" y="3448.53" type="priority"/>
    <node id="1556258560" x="2705.17" y="3499.43" type="priority"/>
    <node id="1556258585" x="2772.65" y="3595.19" type="right_before_left"/>
    <node id="1556258600" x="2616.64" y="3925.11" type="priority"/>
    <node id="1556258604" x="2664.45" y="3944.95" type="priority"/>
    <node id="1556258608" x="2566.19" y="4032.86" type="right_before_left"/>
    <node id="1557435317" x="4095.73" y="1662.52" type="priority"/>
    <node id="1559349485" x="4948.28" y="547.08" type="priority"/>
    <node id="1559349518" x="5426.90" y="1105.00" type="priority"/>
    <node id="1559349519" x="5045.36" y="1110.01" type="priority"/>
    <node id="1559349630" x="5039.65" y="1426.75" type="priority"/>
    <node id="1559349631" x="5348.93" y="1431.10" type="priority"/>
    <node id="1559349638" x="5378.59" y="1440.02" type="traffic_light" tl="1559349638"/>
    <node id="1559349639" x="5185.08" y="1454.41" type="priority"/>
    <node id="1559349640" x="5410.12" y="1466.82" type="priority"/>
    <node id="1559349642" x="5256.45" y="1469.59" type="priority"/>
    <node id="1559349644" x="5295.79" y="1501.18" type="priority"/>
    <node id="1559349647" x="5622.20" y="1539.04" type="priority"/>
    <node id="1559349648" x="5702.13" y="1542.62" type="priority"/>
    <node id="1559349651" x="5206.81" y="1545.30" type="priority"/>
    <node id="1559349653" x="5578.06" y="1570.23" type="priority"/>
    <node id="1559349662" x="5218.29" y="1589.07" type="priority"/>
    <node id="1559349663" x="4879.66" y="1584.29" type="priority"/>
    <node id="1559349667" x="4957.61" y="1591.63" type="priority"/>
    <node id="1559349673" x="5051.46" y="1600.47" type="priority"/>
    <node id="1559349677" x="5883.22" y="1621.19" type="priority"/>
    <node id="1559349683" x="5508.89" y="1623.34" type="priority"/>
    <node id="1559349689" x="5214.00" y="1634.02" type="priority"/>
    <node id="1559349692" x="5680.43" y="1645.41" type="priority"/>
    <node id="1559349698" x="5345.54" y="1669.32" type="priority"/>
    <node id="1559349707" x="5445.11" y="1701.72" type="priority"/>
    <node id="1559349726" x="5610.06" y="1734.69" type="priority"/>
    <node id="1559349733" x="5659.20" y="1747.34" type="priority"/>
    <node id="1559349739" x="5789.70" y="1797.78" type="priority"/>
    <node id="1559349747" x="5641.40" y="1826.84" type="traffic_light" tl="GS_1559349747"/>
    <node id="1559349751" x="4782.24" y="1821.47" type="priority"/>
    <node id="1559349761" x="5770.72" y="1857.96" type="priority"/>
    <node id="1559349766" x="5115.29" y="1877.93" type="priority"/>
    <node id="1559349797" x="4961.79" y="1981.01" type="priority"/>
    <node id="1559349804" x="4866.59" y="1999.16" type="priority"/>
    <node id="1559349830" x="4965.92" y="2072.04" type="priority"/>
    <node id="1559349835" x="4918.50" y="2090.42" type="priority"/>
    <node id="1559349841" x="5362.30" y="2114.64" type="priority"/>
    <node id="1559349843" x="5030.53" y="2109.57" type="priority"/>
    <node id="1559393799" x="3382.00" y="590.42" type="priority"/>
    <node id="1559393843" x="3192.33" y="664.34" type="priority"/>
    <node id="1559393871" x="3317.17" y="713.88" type="priority"/>
    <node id="1559393904" x="3407.24" y="755.49" type="priority"/>
    <node id="1559393909" x="3487.38" y="793.67" type="priority"/>
    <node id="1559393910" x="3527.82" y="813.50" type="priority"/>
    <node id="1559393913" x="3570.88" y="834.20" type="priority"/>
    <node id="1559393924" x="3268.06" y="842.64" type="priority"/>
    <node id="1559393925" x="3645.87" y="849.55" type="priority"/>
    <node id="1559393949" x="3719.90" y="887.45" type="priority"/>
    <node id="1559393950" x="3344.18" y="884.63" type="priority"/>
    <node id="1559393959" x="3415.16" y="942.85" type="priority"/>
    <node id="1559393962" x="3448.85" y="973.61" type="priority"/>
    <node id="1559393964" x="3808.38" y="996.77" type="priority"/>
    <node id="1559393968" x="3485.98" y="1008.16" type="priority"/>
    <node id="1559393973" x="3883.44" y="1075.53" type="priority"/>
    <node id="1559393975" x="3555.78" y="1072.78" type="priority"/>
    <node id="1559393978" x="3625.15" y="1137.73" type="priority"/>
    <node id="1559393999" x="3692.98" y="1201.43" type="priority"/>
    <node id="1559394009" x="3762.27" y="1264.67" type="priority"/>
    <node id="1559394011" x="3839.10" y="1332.05" type="priority"/>
    <node id="1559394034" x="3957.82" y="1428.83" type="priority"/>
    <node id="1559394080" x="3787.43" y="1651.23" type="priority"/>
    <node id="1561585589" x="3587.38" y="545.54" type="priority"/>
    <node id="1561585601" x="3476.17" y="573.93" type="priority"/>
    <node id="1561585602" x="3640.00" y="565.30" type="priority"/>
    <node id="1561585626" x="3766.91" y="592.12" type="priority"/>
    <node id="1561585666" x="3918.27" y="617.79" type="priority"/>
    <node id="1561585755" x="3742.84" y="671.91" type="priority"/>
    <node id="1561585758" x="3591.30" y="680.70" type="priority"/>
    <node id="1561585798" x="3966.87" y="745.52" type="priority"/>
    <node id="1561585802" x="3715.93" y="752.74" type="priority"/>
    <node id="1561585837" x="3998.26" y="858.61" type="priority"/>
    <node id="1561585846" x="3733.66" y="857.21" type="priority"/>
    <node id="1561585870" x="3785.06" y="893.21" type="priority"/>
    <node id="1561585898" x="3755.49" y="909.28" type="priority"/>
    <node id="1561585900" x="3743.48" y="917.70" type="priority"/>
    <node id="1561585901" x="3892.56" y="928.26" type="priority"/>
    <node id="1561585904" x="4008.00" y="979.19" type="priority"/>
    <node id="1561585905" x="3873.19" y="977.14" type="priority"/>
    <node id="1561585928" x="3905.84" y="1018.49" type="priority"/>
    <node id="1561585932" x="4107.33" y="1025.87" type="priority"/>
    <node id="1561585973" x="3996.12" y="1079.76" type="priority"/>
    <node id="1561585976" x="4017.71" y="1080.67" type="priority"/>
    <node id="1561586029" x="4084.64" y="1293.49" type="priority"/>
    <node id="1561586031" x="4152.59" y="1325.84" type="traffic_light" tl="1561586031"/>
    <node id="1568949552" x="5089.56" y="5590.76" type="right_before_left"/>
    <node id="1568949556" x="5005.71" y="5613.08" type="priority"/>
    <node id="1569152421" x="5372.99" y="2862.90" type="priority"/>
    <node id="1569152441" x="5353.49" y="2965.47" type="priority"/>
    <node id="1569152583" x="4573.39" y="5113.21" type="priority"/>
    <node id="1569152584" x="4451.61" y="5148.15" type="priority"/>
    <node id="1569152587" x="4405.43" y="5160.64" type="priority"/>
    <node id="1569152588" x="4373.79" y="5170.28" type="priority"/>
    <node id="1569235772" x="3093.85" y="2611.09" type="priority"/>
    <node id="1569235777" x="2723.29" y="2699.39" type="priority"/>
    <node id="1569235779" x="2854.20" y="2707.96" type="priority"/>
    <node id="1569235780" x="2740.47" y="2720.53" type="priority"/>
    <node id="1569235784" x="2827.39" y="2748.04" type="priority"/>
    <node id="1569235825" x="2979.36" y="2791.76" type="priority"/>
    <node id="1572702190" x="5456.01" y="4254.64" type="priority"/>
    <node id="1573163072" x="4763.23" y="4227.36" type="priority"/>
    <node id="1573163097" x="5221.03" y="4535.82" type="priority"/>
    <node id="1573163108" x="5444.94" y="4563.94" type="priority"/>
    <node id="1573163114" x="5578.48" y="4586.59" type="priority"/>
    <node id="1573163143" x="5227.13" y="4635.58" type="priority"/>
    <node id="1573825045" x="5379.32" y="1922.75" type="priority"/>
    <node id="1573825050" x="5220.45" y="1976.64" type="priority"/>
    <node id="1573825052" x="5206.22" y="2089.68" type="priority"/>
    <node id="1573825054" x="5040.23" y="2118.97" type="priority"/>
    <node id="1573825061" x="5078.41" y="2179.91" type="priority"/>
    <node id="1573825062" x="4733.31" y="2183.59" type="priority"/>
    <node id="1573825064" x="5189.42" y="2199.60" type="priority"/>
    <node id="1573825068" x="5263.88" y="2212.01" type="priority"/>
    <node id="1573825081" x="5046.29" y="2235.80" type="priority"/>
    <node id="1573825082" x="5218.62" y="2241.15" type="priority"/>
    <node id="1573825083" x="4684.28" y="2235.17" type="priority"/>
    <node id="1573825084" x="5242.90" y="2245.08" type="priority"/>
    <node id="1573825085" x="5258.46" y="2247.61" type="priority"/>
    <node id="1573825090" x="5343.79" y="2261.60" type="priority"/>
    <node id="1573825093" x="5338.58" y="2260.60" type="priority"/>
    <node id="1573825112" x="5085.85" y="2273.18" type="priority"/>
    <node id="1573825122" x="4997.28" y="2286.97" type="priority"/>
    <node id="1573825123" x="5583.00" y="2300.25" type="priority"/>
    <node id="1573825124" x="5111.95" y="2297.90" type="priority"/>
    <node id="1573825129" x="5038.77" y="2326.62" type="priority"/>
    <node id="1573825130" x="5062.78" y="2349.11" type="priority"/>
    <node id="1573825131" x="4627.48" y="2342.99" type="priority"/>
    <node id="1573825132" x="5037.68" y="2350.28" type="priority"/>
    <node id="1573825137" x="5095.20" y="2379.86" type="priority"/>
    <node id="1573825139" x="4898.98" y="2393.75" type="priority"/>
    <node id="1573825148" x="4956.52" y="2437.16" type="priority"/>
    <node id="1573825188" x="5013.59" y="2480.70" type="priority"/>
    <node id="1573825223" x="5073.30" y="2539.96" type="priority"/>