<?xml version="1.0" encoding="UTF-8"?>

<!-- generated on 11/07/20 15:43:57 by Eclipse SUMO netconvert Version v1_7_0+0879-aea7511197
<configuration xmlns:xsi="http://www.w3.org/2001/XMLSchema-instance" xsi:noNamespaceSchemaLocation="http://sumo.dlr.de/xsd/netconvertConfiguration.xsd">

    <input>
        <sumo-net-file value="osm.net.xml"/>
    </input>

    <output>
        <plain-output-prefix value="F:\polyhack\trafficmap\aarhus"/>
        <output.street-names value="true"/>
    </output>

    <processing>
        <geometry.min-radius.fix.railways value="false"/>
        <geometry.max-grade.fix value="false"/>
        <offset.disable-normalization value="true"/>
        <lefthand value="false"/>
    </processing>

    <junctions>
        <no-turnarounds value="true"/>
        <junctions.corner-detail value="5"/>
        <junctions.limit-turn-speed value="5.5"/>
        <rectangular-lane-cut value="false"/>
    </junctions>

    <pedestrian>
        <walkingareas value="false"/>
    </pedestrian>

    <report>
        <aggregate-warnings value="5"/>
    </report>

</configuration>
-->

<edges version="1.6" xmlns:xsi="http://www.w3.org/2001/XMLSchema-instance" xsi:noNamespaceSchemaLocation="http://sumo.dlr.de/xsd/edges_file.xsd">
    <edge id="-100281664#2" from="287317087" to="211515394" name="Barthsgade" priority="3" type="highway.residential" numLanes="1" speed="13.89" shape="6175.65,5346.09 6186.37,5314.74 6188.64,5302.98 6189.41,5295.46 6189.88,5288.31 6189.32,5281.20 6186.85,5270.54 6176.91,5236.06 6174.42,5227.03 6149.16,5135.35" disallow="tram rail_urban rail rail_electric rail_fast ship">
        <lane index="0">
            <param key="origId" value="100281664"/>
        </lane>
    </edge>
    <edge id="-102695800#4" from="872675574" to="252973937" name="Ryhaven" priority="3" type="highway.residential" numLanes="1" speed="5.56" shape="2296.97,4229.14 2306.07,4233.68 2329.51,4246.41 2335.95,4249.87 2386.77,4277.85 2436.98,4304.69" disallow="tram rail_urban rail rail_electric rail_fast ship">
        <lane index="0">
            <param key="origId" value="102695800"/>
        </lane>
    </edge>
    <edge id="-104291156#1" from="253266743" to="cluster_1599748652_253266744" name="Silkeborgvej" priority="3" type="highway.residential" numLanes="1" speed="13.89" shape="4255.57,3585.92 4264.42,3516.17 4265.55,3510.95" disallow="tram rail_urban rail rail_electric rail_fast ship">
        <lane index="0">
            <param key="origId" value="104291156"/>
        </lane>
        <param key="origTo" value="253266744"/>
    </edge>
    <edge id="-104291157#1" from="253263028" to="cluster_1599748665_1599748668_255159432" name="Finderupvej" priority="4" type="highway.unclassified" numLanes="1" speed="13.89" shape="4384.93,3460.92 4380.07,3509.15 4379.48,3514.95" disallow="tram rail_urban rail rail_electric rail_fast ship">
        <lane index="0">
            <param key="origId" value="104291157"/>
        </lane>
        <param key="origTo" value="255159432"/>
    </edge>
    <edge id="-104291157#4" from="60479079" to="253263028" name="Finderupvej" priority="4" type="highway.unclassified" numLanes="1" speed="13.89" shape="4550.12,3383.02 4541.83,3382.73 4479.91,3380.58 4466.68,3380.17 4425.86,3378.97 4418.19,3378.85 4410.72,3380.56 4403.87,3383.99 4398.02,3388.94 4393.52,3395.13 4390.62,3402.22 4389.48,3409.78 4384.93,3460.92" disallow="tram rail_urban rail rail_electric rail_fast ship">
        <lane index="0">
            <param key="origId" value="104291157"/>
        </lane>
    </edge>
    <edge id="-105307583#3" from="60265073" to="173968865" name="Vestervang" priority="3" type="highway.residential" numLanes="1" speed="13.89" shape="5418.93,4312.71 5412.81,4313.04 5357.52,4318.25 5354.38,4318.60 5348.22,4319.32" disallow="tram rail_urban rail rail_electric rail_fast ship">
        <lane index="0">
            <param key="origId" value="105307583"/>
        </lane>
    </edge>
    <edge id="-106751490#1" from="1227789678" to="cluster_1227789731_266455497_266455498" name="Jens Christian Skous Vej" priority="3" type="highway.residential" numLanes="1" speed="13.89" shape="5933.31,5347.42 5999.15,5366.09 6029.73,5374.76" disallow="tram rail_urban rail rail_electric rail_fast ship">
        <lane index="0">
            <param key="origId" value="106751490"/>
        </lane>
        <param key="origTo" value="266455498"/>
    </edge>
    <edge id="-107079107#2" from="3475281707" to="1021388598" name="Javavej" priority="4" type="highway.unclassified" numLanes="1" speed="8.33" shape="6227.13,2116.01 6248.12,2128.63 6294.62,2156.95 6394.19,2218.82" disallow="tram rail_urban rail rail_electric rail_fast ship">
        <lane index="0">
            <param key="origId" value="107079107"/>
        </lane>
    </edge>
    <edge id="-107079108#1" from="1431915186" to="252719395" name="Colombovej" priority="4" type="highway.unclassified" numLanes="1" speed="13.89" shape="6898.15,2265.94 6799.08,2330.96 6667.34,2417.44" disallow="tram rail_urban rail rail_electric rail_fast ship">
        <lane index="0">
            <param key="origId" value="107079108"/>
        </lane>
    </edge>
    <edge id="-107079109#1" from="1231091006" to="1021388598" name="Borneovej" priority="4" type="highway.unclassified" numLanes="1" speed="13.89" shape="6508.44,2352.06 6477.23,2308.49 6438.94,2246.94 6394.19,2218.82" disallow="tram rail_urban rail rail_electric rail_fast ship">
        <lane index="0">
            <param key="origId" value="107079109"/>
        </lane>
    </edge>
    <edge id="-107079109#2" from="1231091041" to="1231091006" name="Borneovej" priority="4" type="highway.unclassified" numLanes="1" speed="13.89" disallow="tram rail_urban rail rail_electric rail_fast ship">
        <lane index="0">
            <param key="origId" value="107079109"/>
        </lane>
    </edge>
    <edge id="-107079111" from="1231091022" to="1231091028" name="Koreavej" priority="4" type="highway.unclassified" numLanes="1" speed="13.89" disallow="tram rail_urban rail rail_electric rail_fast ship">
        <lane index="0">
            <param key="origId" value="107079111"/>
        </lane>
    </edge>
    <edge id="-107079115" from="1231091022" to="3800989557" priority="4" type="highway.unclassified" numLanes="1" speed="13.89" shape="7039.92,3059.43 7171.33,3003.01 7244.46,3155.43" disallow="tram rail_urban rail rail_electric rail_fast ship">
        <lane index="0">
            <param key="origId" value="107079115 708180205"/>
        </lane>
    </edge>
    <edge id="-107079116#0" from="1231091045" to="1231091029" name="Kystværnsvej" priority="4" type="highway.unclassified" numLanes="1" speed="13.89" disallow="tram rail_urban rail rail_electric rail_fast ship">
        <lane index="0">
            <param key="origId" value="107079116"/>
        </lane>
    </edge>
    <edge id="-107079116#1" from="1231091038" to="1231091045" name="Kystværnsvej" priority="4" type="highway.unclassified" numLanes="1" speed="13.89" shape="7132.56,2917.35 7137.33,2775.25 7135.14,2766.89 7083.76,2688.86" disallow="tram rail_urban rail rail_electric rail_fast ship">
        <lane index="0">
            <param key="origId" value="107079116"/>
        </lane>
    </edge>
    <edge id="-107079117#1" from="1231091045" to="1231091036" name="Kuwaitvej" priority="4" type="highway.unclassified" numLanes="1" speed="13.89" shape="7083.76,2688.86 7007.87,2736.74 6914.62,2795.57" disallow="tram rail_urban rail rail_electric rail_fast ship">
        <lane index="0">
            <param key="origId" value="107079117"/>
        </lane>
    </edge>
    <edge id="-107079119" from="1231091041" to="1231090996" name="Malaccavej" priority="4" type="highway.unclassified" numLanes="1" speed="13.89" disallow="tram rail_urban rail rail_electric rail_fast ship">
        <lane index="0">
            <param key="origId" value="107079119"/>
        </lane>
    </edge>
    <edge id="-107614273" from="1236485534" to="100178933" name="Busgaden" priority="4" type="highway.unclassified" numLanes="1" speed="13.89" shape="6001.46,3456.14 5996.75,3445.69 5988.68,3430.96 5980.09,3416.58 5959.77,3385.62 5948.35,3364.53 5945.26,3356.76 5944.04,3353.69" disallow="tram rail_urban rail rail_electric rail_fast ship">
        <lane index="0">
            <param key="origId" value="107614273 107614271 522719351 187957278"/>
        </lane>
    </edge>
    <edge id="-107683570#1" from="4900394544" to="1237100941" name="Paludan-Müllers Vej" priority="10" type="highway.tertiary" numLanes="2" speed="13.89" shape="4937.11,4918.16 4924.97,4931.57 4917.41,4940.13" disallow="tram rail_urban rail rail_electric rail_fast ship">
        <lane index="0">
            <param key="origId" value="107683570"/>
        </lane>
        <lane index="1">
            <param key="origId" value="107683570"/>
        </lane>
    </edge>
    <edge id="-107701562#2" from="1237291196" to="255068479" name="Strandparken" priority="3" type="highway.residential" numLanes="1" speed="13.89" shape="6138.29,2203.85 6127.19,2222.58 6109.62,2252.02 6105.12,2257.75 6101.43,2260.34 6097.23,2263.27" disallow="tram rail_urban rail rail_electric rail_fast ship">
        <lane index="0">
            <param key="origId" value="107701562"/>
        </lane>
    </edge>
    <edge id="-107807114#0" from="253241084" to="1583187429" name="Harald Kiddes Vej" priority="3" type="highway.residential" numLanes="1" speed="8.33" disallow="tram rail_urban rail rail_electric rail_fast ship">
        <lane index="0">
            <param key="origId" value="107807114"/>
        </lane>
    </edge>
    <edge id="-107807114#1" from="1251122823" to="253241084" name="Harald Kiddes Vej" priority="3" type="highway.residential" numLanes="1" speed="8.33" disallow="tram rail_urban rail rail_electric rail_fast ship">
        <lane index="0">
            <param key="origId" value="107807114"/>
        </lane>
    </edge>
    <edge id="-107904933" from="1556258608" to="1018753815" name="Lyngsiesvej" priority="3" type="highway.residential" numLanes="1" speed="8.33" disallow="tram rail_urban rail rail_electric rail_fast ship">
        <lane index="0">
            <param key="origId" value="107904933"/>
        </lane>
    </edge>
    <edge id="-108035413#2" from="367287114" to="1018588587" name="Ryhavevej" priority="10" type="highway.tertiary" numLanes="1" speed="13.89" shape="2679.54,4437.35 2724.90,4462.29 2740.94,4471.00 2772.49,4488.50" disallow="tram rail_urban rail rail_electric rail_fast ship">
        <lane index="0">
            <param key="origId" value="108035413"/>
        </lane>
    </edge>
    <edge id="-108035413#7" from="258223771" to="367287114" name="Ryhavevej" priority="10" type="highway.tertiary" numLanes="1" speed="13.89" shape="2492.42,4334.88 2506.74,4342.73 2596.30,4391.53 2630.90,4410.61 2668.27,4431.15 2679.54,4437.35" disallow="tram rail_urban rail rail_electric rail_fast ship">
        <lane index="0">
            <param key="origId" value="108035413"/>
        </lane>
    </edge>
    <edge id="-108035413#9" from="252973937" to="258223771" name="Ryhavevej" priority="10" type="highway.tertiary" numLanes="1" speed="13.89" shape="2436.98,4304.69 2451.82,4312.78 2492.42,4334.88" disallow="tram rail_urban rail rail_electric rail_fast ship">
        <lane index="0">
            <param key="origId" value="108035413"/>
        </lane>
    </edge>
    <edge id="-109085416#3" from="cluster_1139543806_60271044_60271045" to="60271216" name="Brendstrupvej" priority="4" type="highway.unclassified" numLanes="1" speed="13.89" shape="4582.29,5911.57 4576.81,5908.27 4572.65,5906.83 4560.55,5908.85 4535.57,5915.97 4524.17,5919.21" disallow="tram rail_urban rail rail_electric rail_fast ship">
        <lane index="0">
            <param key="origId" value="109085416"/>
        </lane>
        <param key="origFrom" value="60271045"/>
    </edge>
    <edge id="-109232840" from="258224879" to="1251072799" name="Præstevangsvej" priority="3" type="highway.residential" numLanes="1" speed="13.89" disallow="tram rail_urban rail rail_electric rail_fast ship">
        <lane index="0">
            <param key="origId" value="109232840"/>
        </lane>
    </edge>
    <edge id="-109232841#0" from="106078473" to="1251072801" name="Præstevangsvej" priority="3" type="highway.residential" numLanes="1" speed="8.33" disallow="tram rail_urban rail rail_electric rail_fast ship">
        <lane index="0">
            <param key="origId" value="109232841"/>
        </lane>
    </edge>
    <edge id="-109232841#1" from="1251072799" to="106078473" name="Præstevangsvej" priority="3" type="highway.residential" numLanes="1" speed="8.33" disallow="tram rail_urban rail rail_electric rail_fast ship">
        <lane index="0">
            <param key="origId" value="109232841"/>
        </lane>
    </edge>
    <edge id="-109232842#1" from="1556258585" to="1251072802" name="C.A. Thyregods Vej" priority="3" type="highway.residential" numLanes="1" speed="8.33" shape="2772.65,3595.19 2751.89,3585.31 2682.26,3550.60 2634.52,3525.22 2610.66,3512.61" disallow="tram rail_urban rail rail_electric rail_fast ship">
        <lane index="0">
            <param key="origId" value="109232842"/>
        </lane>
    </edge>
    <edge id="-109232842#4" from="367314880" to="1556258585" name="C.A. Thyregods Vej" priority="3" type="highway.residential" numLanes="1" speed="8.33" shape="2926.14,3653.62 2864.22,3631.13 2816.43,3613.76 2793.16,3603.60 2772.65,3595.19" disallow="tram rail_urban rail rail_electric rail_fast ship">
        <lane index="0">
            <param key="origId" value="109232842"/>
        </lane>
    </edge>
    <edge id="-109232842#5" from="253241083" to="367314880" name="C.A. Thyregods Vej" priority="3" type="highway.residential" numLanes="1" speed="8.33" disallow="tram rail_urban rail rail_electric rail_fast ship">
        <lane index="0">
            <param key="origId" value="109232842"/>
        </lane>
    </edge>
    <edge id="-109232842#6" from="252989184" to="253241083" name="C.A. Thyregods Vej" priority="3" type="highway.residential" numLanes="1" speed="8.33" shape="3133.86,3728.21 3109.23,3719.04 3040.10,3693.32" disallow="tram rail_urban rail rail_electric rail_fast ship">
        <lane index="0">
            <param key="origId" value="109232842"/>
        </lane>
    </edge>
    <edge id="-109232842#7" from="253241084" to="252989184" name="C.A. Thyregods Vej" priority="3" type="highway.residential" numLanes="1" speed="8.33" disallow="tram rail_urban rail rail_electric rail_fast ship">
        <lane index="0">
            <param key="origId" value="109232842"/>
        </lane>
    </edge>
    <edge id="-109232842#8" from="253241085" to="253241084" name="C.A. Thyregods Vej" priority="3" type="highway.residential" numLanes="1" speed="8.33" shape="3318.23,3795.16 3291.96,3785.18 3225.65,3761.27" disallow="tram rail_urban rail rail_electric rail_fast ship">
        <lane index="0">
            <param key="origId" value="109232842"/>
        </lane>
    </edge>
    <edge id="-109232842#9" from="253241086" to="253241085" name="C.A. Thyregods Vej" priority="3" type="highway.residential" numLanes="1" speed="8.33" shape="3403.24,3831.89 3361.19,3812.48 3343.32,3805.27 3318.23,3795.16" disallow="tram rail_urban rail rail_electric rail_fast ship">
        <lane index="0">
            <param key="origId" value="109232842"/>
        </lane>
    </edge>
    <edge id="-109232843#2" from="367212201" to="1251072797" name="Præstehaven" priority="3" type="highway.residential" numLanes="1" speed="8.33" shape="3712.55,4306.06 3731.41,4214.33 3732.43,4210.56 3734.07,4207.57 3738.44,4206.12 3744.29,4205.87 3804.56,4209.67 3813.45,4210.69" disallow="tram rail_urban rail rail_electric rail_fast ship">
        <lane index="0">
            <param key="origId" value="109232843"/>
        </lane>
    </edge>
    <edge id="-109235729#5" from="252989144" to="1251122823" name="Harald Kiddes Vej" priority="3" type="highway.residential" numLanes="1" speed="13.89" shape="3277.92,3555.84 3264.03,3610.36 3261.87,3625.97 3260.85,3654.54 3256.66,3671.42 3243.14,3703.14 3241.64,3707.01 3235.59,3722.35 3235.12,3724.19 3229.74,3744.69" disallow="tram rail_urban rail rail_electric rail_fast ship">
        <lane index="0">
            <param key="origId" value="109235729"/>
        </lane>
    </edge>
    <edge id="-109235730#0" from="258223659" to="1168305114" name="Johannes Ewalds Vej" priority="3" type="highway.residential" numLanes="1" speed="13.89" disallow="tram rail_urban rail rail_electric rail_fast ship">
        <lane index="0">
            <param key="origId" value="109235730"/>
        </lane>
    </edge>
    <edge id="-109235733#0" from="544445058" to="1251122830" name="Erik Bøghs Vej" priority="3" type="highway.residential" numLanes="1" speed="13.89" shape="2473.87,3697.09 2435.66,3683.47 2427.50,3679.76 2419.77,3674.98 2385.48,3649.79" disallow="tram rail_urban rail rail_electric rail_fast ship">
        <lane index="0">
            <param key="origId" value="109235733"/>
        </lane>
    </edge>
    <edge id="-109235733#4" from="918275451" to="544445058" name="Erik Bøghs Vej" priority="3" type="highway.residential" numLanes="1" speed="13.89" shape="2601.00,3747.23 2582.73,3740.11 2568.14,3734.49 2552.51,3728.52 2473.87,3697.09" disallow="tram rail_urban rail rail_electric rail_fast ship">
        <lane index="0">
            <param key="origId" value="109235733"/>
        </lane>
    </edge>
    <edge id="-109235733#5" from="1251122821" to="918275451" name="Erik Bøghs Vej" priority="3" type="highway.residential" numLanes="1" speed="13.89" disallow="tram rail_urban rail rail_electric rail_fast ship">
        <lane index="0">
            <param key="origId" value="109235733"/>
        </lane>
    </edge>
    <edge id="-109235734" from="252973938" to="1018944570" name="St. Blichers Vej" priority="3" type="highway.residential" numLanes="1" speed="13.89" disallow="tram rail_urban rail rail_electric rail_fast ship">
        <lane index="0">
            <param key="origId" value="109235734"/>
        </lane>
    </edge>
    <edge id="-109235735#0" from="1556258557" to="1018944754" name="J. Skjoldborgs Vej" priority="3" type="highway.residential" numLanes="1" speed="13.89" disallow="tram rail_urban rail rail_electric rail_fast ship">
        <lane index="0">
            <param key="origId" value="109235735"/>
        </lane>
    </edge>
    <edge id="-109235735#2" from="2831935156" to="1556258557" name="J. Skjoldborgs Vej" priority="3" type="highway.residential" numLanes="1" speed="13.89" shape="2638.50,3272.02 2592.36,3336.55 2512.28,3448.53" disallow="tram rail_urban rail rail_electric rail_fast ship">
        <lane index="0">
            <param key="origId" value="109235735"/>
        </lane>
    </edge>
    <edge id="-109235736#0" from="253241085" to="1123543426" name="Kamma Rahbeks Vej" priority="3" type="highway.residential" numLanes="1" speed="8.33" disallow="tram rail_urban rail rail_electric rail_fast ship">
        <lane index="0">
            <param key="origId" value="109235736"/>
        </lane>
    </edge>
    <edge id="-109235736#1" from="1251122827" to="253241085" name="Kamma Rahbeks Vej" priority="3" type="highway.residential" numLanes="1" speed="8.33" disallow="tram rail_urban rail rail_electric rail_fast ship">
        <lane index="0">
            <param key="origId" value="109235736"/>
        </lane>
    </edge>
    <edge id="-109235737#0" from="1556258608" to="1168305060" name="St. Blichers Vej" priority="3" type="highway.residential" numLanes="1" speed="8.33" disallow="tram rail_urban rail rail_electric rail_fast ship">
        <lane index="0">
            <param key="origId" value="109235737"/>
        </lane>
    </edge>
    <edge id="-109235737#1" from="1556258600" to="1556258608" name="St. Blichers Vej" priority="3" type="highway.residential" numLanes="1" speed="8.33" shape="2616.64,3925.11 2597.36,3966.41 2573.32,4017.07 2566.19,4032.86" disallow="tram rail_urban rail rail_electric rail_fast ship">
        <lane index="0">
            <param key="origId" value="109235737"/>
        </lane>
    </edge>
    <edge id="-109235737#3" from="367303133" to="1556258600" name="St. Blichers Vej" priority="3" type="highway.residential" numLanes="1" speed="8.33" shape="2685.14,3780.33 2678.77,3793.77 2638.83,3878.01 2625.99,3905.07 2616.64,3925.11" disallow="tram rail_urban rail rail_electric rail_fast ship">
        <lane index="0">
            <param key="origId" value="109235737"/>
        </lane>
    </edge>
    <edge id="-109235737#5" from="367303117" to="367303133" name="St. Blichers Vej" priority="3" type="highway.residential" numLanes="1" speed="8.33" shape="2733.90,3677.51 2728.07,3690.23 2707.96,3732.43 2693.52,3762.74 2685.14,3780.33" disallow="tram rail_urban rail rail_electric rail_fast ship">
        <lane index="0">
            <param key="origId" value="109235737"/>
        </lane>
    </edge>
    <edge id="-109235737#6" from="1556258585" to="367303117" name="St. Blichers Vej" priority="3" type="highway.residential" numLanes="1" speed="8.33" shape="2772.65,3595.19 2764.06,3614.25 2742.91,3657.27 2733.90,3677.51" disallow="tram rail_urban rail rail_electric rail_fast ship">
        <lane index="0">
            <param key="origId" value="109235737"/>
        </lane>
    </edge>
    <edge id="-109235737#7" from="1018944570" to="1556258585" name="St. Blichers Vej" priority="3" type="highway.residential" numLanes="1" speed="8.33" disallow="tram rail_urban rail rail_electric rail_fast ship">
        <lane index="0">
            <param key="origId" value="109235737"/>
        </lane>
    </edge>
    <edge id="-109235738" from="1251122812" to="1251122832" name="St.Blichers Vej" priority="3" type="highway.residential" numLanes="1" speed="13.89" disallow="tram rail_urban rail rail_electric rail_fast ship">
        <lane index="0">
            <param key="origId" value="109235738"/>
        </lane>
    </edge>
    <edge id="-109235739#6" from="560473394" to="1251122827" name="Kamma Rahbeks Vej" priority="3" type="highway.residential" numLanes="1" speed="13.89" shape="3367.12,3590.73 3359.16,3618.32 3351.99,3647.81 3346.12,3663.26 3338.72,3679.49 3332.13,3702.05 3330.42,3712.64 3328.85,3733.50 3328.81,3742.68 3326.08,3760.12 3321.63,3777.99" disallow="tram rail_urban rail rail_electric rail_fast ship">
        <lane index="0">
            <param key="origId" value="109235739"/>
        </lane>
    </edge>
    <edge id="-109235740" from="367303133" to="1251122821" name="Erik Bøghs Vej" priority="3" type="highway.residential" numLanes="1" speed="8.33" disallow="tram rail_urban rail rail_electric rail_fast ship">
        <lane index="0">
            <param key="origId" value="109235740"/>
        </lane>
    </edge>
    <edge id="-109235741#0" from="252989184" to="1251122834" name="Sophus Bauditz Vej" priority="3" type="highway.residential" numLanes="1" speed="8.33" disallow="tram rail_urban rail rail_electric rail_fast ship">
        <lane index="0">
            <param key="origId" value="109235741"/>
        </lane>
    </edge>
    <edge id="-109235741#1" from="1238334984" to="252989184" name="Sophus Bauditz Vej" priority="3" type="highway.residential" numLanes="1" speed="8.33" disallow="tram rail_urban rail rail_electric rail_fast ship">
        <lane index="0">
            <param key="origId" value="109235741"/>
        </lane>
    </edge>
    <edge id="-109235742#0" from="846569742" to="1251122814" name="Gammelgårdsvej" priority="3" type="highway.residential" numLanes="1" speed="13.89" disallow="tram rail_urban rail rail_electric rail_fast ship">
        <lane index="0">
            <param key="origId" value="109235742"/>
        </lane>
    </edge>
    <edge id="-109235742#3" from="256344955" to="846569742" name="Gammelgårdsvej" priority="3" type="highway.residential" numLanes="1" speed="13.89" shape="3063.82,3332.24 2981.98,3522.46 2970.58,3548.94 2941.59,3616.23" disallow="tram rail_urban rail rail_electric rail_fast ship">
        <lane index="0">
            <param key="origId" value="109235742"/>
        </lane>
    </edge>
    <edge id="-109300669#0" from="1559349766" to="cluster_332470539_332470540" name="Hans Schourups Gade" priority="3" type="highway.residential" numLanes="1" speed="13.89" shape="5115.29,1877.93 5181.48,1940.60 5187.39,1946.19" disallow="tram rail_urban rail rail_electric rail_fast ship">
        <lane index="0">
            <param key="origId" value="109300669"/>
        </lane>
        <param key="origTo" value="332470540"/>
    </edge>
    <edge id="-109300669#2" from="899475117" to="1559349766" name="Hans Schourups Gade" priority="3" type="highway.residential" numLanes="1" speed="13.89" shape="5065.56,1853.51 5072.53,1854.58 5083.04,1856.78 5092.69,1859.86 5104.27,1867.48 5115.29,1877.93" disallow="tram rail_urban rail rail_electric rail_fast ship">
        <lane index="0">
            <param key="origId" value="109300669"/>
        </lane>
    </edge>
    <edge id="-10972673#2" from="661207058" to="cluster_661207062_97798365" name="Skovvangsvej" priority="10" type="highway.tertiary" numLanes="1" speed="13.89" shape="5750.07,5816.60 5766.89,5812.65 5823.57,5799.35" disallow="tram rail_urban rail rail_electric rail_fast ship">
        <lane index="0">
            <param key="origId" value="10972673"/>
        </lane>
        <param key="origTo" value="97798365"/>
    </edge>
    <edge id="-10972673#4" from="cluster_2776380602_97798362" to="661207058" name="Skovvangsvej" priority="10" type="highway.tertiary" numLanes="1" speed="13.89" shape="5683.42,5831.97 5712.47,5825.43 5750.07,5816.60" disallow="tram rail_urban rail rail_electric rail_fast ship">
        <lane index="0">
            <param key="origId" value="10972673"/>
        </lane>
        <param key="origFrom" value="97798362"/>
    </edge>
    <edge id="-10999226" from="97970131" to="97970130" name="Grønningen" priority="3" type="highway.residential" numLanes="1" speed="13.89" disallow="tram rail_urban rail rail_electric rail_fast ship">
        <lane index="0">
            <param key="origId" value="10999226"/>
        </lane>
    </edge>
    <edge id="-10999615#5" from="252804730" to="106224076" name="Vennelyst Boulevard" priority="10" type="highway.tertiary" numLanes="1" speed="13.89" shape="5968.99,4600.20 5964.60,4596.06 5947.06,4579.53 5929.87,4550.19 5919.90,4533.16 5915.76,4526.11 5904.37,4506.66 5880.16,4465.36 5877.68,4461.13" disallow="tram rail_urban rail rail_electric rail_fast ship">
        <lane index="0">
            <param key="origId" value="10999615"/>
        </lane>
    </edge>
    <edge id="-10999615#9" from="cluster_1227816742_97971582" to="252804730" name="Vennelyst Boulevard" priority="10" type="highway.tertiary" numLanes="1" speed="13.89" shape="6127.79,4610.79 6115.21,4612.78 6112.57,4613.20 6072.72,4620.63 6055.84,4622.97 6039.83,4624.11 6026.11,4623.12 6012.23,4620.72 5997.08,4615.71 5982.53,4608.98 5968.99,4600.20" disallow="tram rail_urban rail rail_electric rail_fast ship">
        <lane index="0">
            <param key="origId" value="10999615"/>
        </lane>
    </edge>
    <edge id="-110788481" from="1264227786" to="258235148" name="Nygade" priority="3" type="highway.residential" numLanes="1" speed="13.89" shape="5862.07,3766.75 5865.55,3767.23 5886.10,3769.36 5892.35,3768.81 5897.26,3763.94 5900.81,3739.67 5905.23,3711.26" disallow="tram rail_urban rail rail_electric rail_fast ship">
        <lane index="0">
            <param key="origId" value="110788481 110788480 23825081 23825081"/>
        </lane>
    </edge>
    <edge id="-110794885#0" from="1231091029" to="252719396" name="Samoavej" priority="4" type="highway.unclassified" numLanes="1" speed="13.89" shape="6964.53,2507.82 6874.15,2565.89 6800.71,2614.77" disallow="tram rail_urban rail rail_electric rail_fast ship">
        <lane index="0">
            <param key="origId" value="110794885 23726425"/>
        </lane>
    </edge>
    <edge id="-110794885#1" from="1431915186" to="1231091029" name="Samoavej" priority="4" type="highway.unclassified" numLanes="1" speed="13.89" shape="6898.15,2265.94 7022.43,2458.34 7018.11,2472.84 6964.53,2507.82" disallow="tram rail_urban rail rail_electric rail_fast ship">
        <lane index="0">
            <param key="origId" value="110794885"/>
        </lane>
    </edge>
    <edge id="-110794887#0" from="1231091028" to="1231091041" name="Borneovej" priority="4" type="highway.unclassified" numLanes="1" speed="13.89" shape="6979.77,3078.44 6965.64,3039.31 6861.07,2845.18 6704.99,2624.90" disallow="tram rail_urban rail rail_electric rail_fast ship">
        <lane index="0">
            <param key="origId" value="110794887 107079109 107079109"/>
        </lane>
    </edge>
    <edge id="-110794887#2" from="1231091052" to="1231091028" name="Borneovej" priority="4" type="highway.unclassified" numLanes="1" speed="13.89" shape="7195.42,3573.71 7103.79,3375.51 7027.28,3210.03 6979.77,3078.44" disallow="tram rail_urban rail rail_electric rail_fast ship">
        <lane index="0">
            <param key="origId" value="110794887"/>
        </lane>
    </edge>
    <edge id="-110794887#3" from="1231091020" to="1231091052" name="Borneovej" priority="4" type="highway.unclassified" numLanes="1" speed="13.89" disallow="tram rail_urban rail rail_electric rail_fast ship">
        <lane index="0">
            <param key="origId" value="110794887"/>
        </lane>
    </edge>
    <edge id="-111555073#3" from="cluster_3381030032_420222331" to="71458149" name="Søren Frichs Vej" priority="10" type="highway.tertiary" numLanes="1" speed="13.89" shape="4807.65,3139.37 4779.70,3146.37 4765.83,3150.10 4659.36,3178.39 4654.68,3179.47 4629.92,3185.26" disallow="tram rail_urban rail rail_electric rail_fast ship">
        <lane index="0">
            <param key="origId" value="111555073"/>
        </lane>